C1361-P1
     RDKit          3D

 45 48  0  0  0  0  0  0  0  0999 V2000
   -3.8341  -28.0288   14.9868 C   0  0  0  0  0  0  0  0  0  0  0  0
   -5.0340  -28.0062   14.0879 C   0  0  0  0  0  0  0  0  0  0  0  0
   -4.9369  -27.4172   12.8320 C   0  0  0  0  0  0  0  0  0  0  0  0
   -6.0533  -27.4186   12.0004 C   0  0  0  0  0  0  0  0  0  0  0  0
   -7.2403  -28.0171   12.4264 C   0  0  0  0  0  0  0  0  0  0  0  0
   -8.4175  -28.1151   11.5078 C   0  0  0  0  0  0  0  0  0  0  0  0
   -9.5274  -27.2854   11.8859 N   0  0  0  0  0  0  0  0  0  0  0  0
   -9.6753  -25.7481   11.8899 C   0  0  0  0  0  0  0  0  0  0  0  0
   -8.9459  -24.9163   11.5139 O   0  0  0  0  0  0  0  0  0  0  0  0
  -11.1232  -25.4354   12.4255 C   0  0  0  0  0  0  0  0  0  0  0  0
  -12.2924  -25.7897   11.4673 C   0  0  0  0  0  0  0  0  0  0  0  0
  -12.3836  -24.3182   11.0355 C   0  0  0  0  0  0  0  0  0  0  0  0
  -11.5511  -24.0351    9.9075 N   0  0  0  0  0  0  0  0  0  0  0  0
  -11.8070  -23.6396    8.5224 C   0  0  0  0  0  0  0  0  0  0  0  0
  -11.6792  -22.2595    8.2061 C   0  0  0  0  0  0  0  0  0  0  0  0
  -11.1198  -21.7461    7.0337 C   0  0  0  0  0  0  0  0  0  0  0  0
  -10.5929  -22.6793    6.1732 C   0  0  0  0  0  0  0  0  0  0  0  0
   -9.7600  -22.4727    5.1211 N   0  0  0  0  0  0  0  0  0  0  0  0
   -9.4175  -23.6978    4.7948 C   0  0  0  0  0  0  0  0  0  0  0  0
   -8.2826  -23.9708    3.5474 Cl  0  0  0  0  0  0  0  0  0  0  0  0
  -10.0249  -24.6982    5.5054 O   0  0  0  0  0  0  0  0  0  0  0  0
  -10.7797  -24.0288    6.4264 C   0  0  0  0  0  0  0  0  0  0  0  0
  -11.4714  -24.5747    7.5245 C   0  0  0  0  0  0  0  0  0  0  0  0
  -11.6404  -23.9728   12.3731 C   0  0  0  0  0  0  0  0  0  0  0  0
   -7.2477  -28.5581   13.7060 C   0  0  0  0  0  0  0  0  0  0  0  0
   -6.1837  -28.5626   14.5443 N   0  0  0  0  0  0  0  0  0  0  0  0
   -2.9889  -28.5034   14.4780 H   0  0  0  0  0  0  0  0  0  0  0  0
   -4.0423  -28.6035   15.8937 H   0  0  0  0  0  0  0  0  0  0  0  0
   -3.5513  -27.0116   15.2722 H   0  0  0  0  0  0  0  0  0  0  0  0
   -4.0098  -26.9566   12.5034 H   0  0  0  0  0  0  0  0  0  0  0  0
   -5.9838  -26.9561   11.0179 H   0  0  0  0  0  0  0  0  0  0  0  0
   -8.1330  -27.8190   10.4918 H   0  0  0  0  0  0  0  0  0  0  0  0
   -8.7703  -29.1510   11.4590 H   0  0  0  0  0  0  0  0  0  0  0  0
  -10.3862  -27.7080   12.2128 H   0  0  0  0  0  0  0  0  0  0  0  0
  -11.2545  -25.8662   13.4281 H   0  0  0  0  0  0  0  0  0  0  0  0
  -12.0690  -26.5093   10.6729 H   0  0  0  0  0  0  0  0  0  0  0  0
  -13.1875  -26.1439   11.9943 H   0  0  0  0  0  0  0  0  0  0  0  0
  -13.4081  -23.9553   10.9259 H   0  0  0  0  0  0  0  0  0  0  0  0
  -10.8283  -23.3550   10.1948 H   0  0  0  0  0  0  0  0  0  0  0  0
  -11.7425  -21.5100    8.9569 H   0  0  0  0  0  0  0  0  0  0  0  0
  -10.8721  -20.7022    6.9139 H   0  0  0  0  0  0  0  0  0  0  0  0
  -11.4106  -25.6354    7.7323 H   0  0  0  0  0  0  0  0  0  0  0  0
  -10.8744  -23.1922   12.3383 H   0  0  0  0  0  0  0  0  0  0  0  0
  -12.3277  -23.7292   13.1928 H   0  0  0  0  0  0  0  0  0  0  0  0
   -8.1342  -29.0402   14.1015 H   0  0  0  0  0  0  0  0  0  0  0  0
  1  2  1  0
  2  3  2  0
  3  4  1  0
  4  5  2  0
  5  6  1  0
  6  7  1  0
  7  8  1  0
  8  9  2  0
  8 10  1  0
 10 11  1  0
 11 12  1  0
 12 13  1  0
 13 14  1  0
 14 15  2  0
 15 16  1  0
 16 17  2  0
 17 18  1  0
 18 19  2  0
 19 20  1  0
 19 21  1  0
 21 22  1  0
 22 23  2  0
 12 24  1  0
  5 25  1  0
 25 26  2  0
 26  2  1  0
 24 10  1  0
 23 14  1  0
 22 17  1  0
  1 27  1  0
  1 28  1  0
  1 29  1  0
  3 30  1  0
  4 31  1  0
  6 32  1  0
  6 33  1  0
  7 34  1  0
 10 35  1  0
 11 36  1  0
 11 37  1  0
 12 38  1  0
 13 39  1  0
 15 40  1  0
 16 41  1  0
 23 42  1  0
 24 43  1  0
 24 44  1  0
 25 45  1  0
M  END
>  <Energy>  (1) 
51.149987152597546

>  <compound_id>  (1) 
1361

>  <target_id>  (1) 
1

>  <reference_id>  (1) 
1

>  <inspiration_ids>  (1) 
[1, 2]

>  <energy_score>  (1) 
22.365294168231284

>  <distance_score>  (1) 
2.2146367976032546

>  <path>  (1) 
/opt/xchem-fragalysis-2/maxwin/BulkDock/SCRATCH/505732/C1361-P1/C1361-P1.minimised.mol

>  <scratch_subdir>  (1) 
/opt/xchem-fragalysis-2/maxwin/BulkDock/SCRATCH/505732/C1361-P1

>  <fragmenstein_runtime>  (1) 
5.005545377731323

>  <fragmenstein_outcome>  (1) 
too moved

>  <fragmenstein_mode>  (1) 
expansion

>  <fragmenstein_error>  (1) 


$$$$
C1361-P2
     RDKit          3D

 45 48  0  0  0  0  0  0  0  0999 V2000
   -3.8404  -27.8568   15.0520 C   0  0  0  0  0  0  0  0  0  0  0  0
   -5.1571  -28.1081   14.3801 C   0  0  0  0  0  0  0  0  0  0  0  0
   -5.3114  -27.8452   13.0213 C   0  0  0  0  0  0  0  0  0  0  0  0
   -6.5491  -28.0849   12.4240 C   0  0  0  0  0  0  0  0  0  0  0  0
   -7.6001  -28.5935   13.1905 C   0  0  0  0  0  0  0  0  0  0  0  0
   -8.9493  -28.8718   12.6046 C   0  0  0  0  0  0  0  0  0  0  0  0
   -9.8281  -27.7434   12.7478 N   0  0  0  0  0  0  0  0  0  0  0  0
  -10.3529  -26.7444   11.6996 C   0  0  0  0  0  0  0  0  0  0  0  0
  -10.2175  -26.7234   10.5406 O   0  0  0  0  0  0  0  0  0  0  0  0
  -11.1747  -25.6457   12.4661 C   0  0  0  0  0  0  0  0  0  0  0  0
  -11.5520  -24.3542   11.7016 C   0  0  0  0  0  0  0  0  0  0  0  0
  -10.3289  -23.6440   12.3341 C   0  0  0  0  0  0  0  0  0  0  0  0
   -9.1244  -23.7492   11.5397 N   0  0  0  0  0  0  0  0  0  0  0  0
   -9.0056  -23.0946   10.2834 C   0  0  0  0  0  0  0  0  0  0  0  0
   -9.0631  -21.6970   10.1882 C   0  0  0  0  0  0  0  0  0  0  0  0
   -9.1982  -21.0489    8.9478 C   0  0  0  0  0  0  0  0  0  0  0  0
   -9.2344  -21.8320    7.7948 C   0  0  0  0  0  0  0  0  0  0  0  0
   -9.3370  -21.4918    6.4716 N   0  0  0  0  0  0  0  0  0  0  0  0
   -9.2526  -22.6524    5.8520 C   0  0  0  0  0  0  0  0  0  0  0  0
   -9.2683  -22.7773    4.1415 Cl  0  0  0  0  0  0  0  0  0  0  0  0
   -9.1195  -23.7389    6.6709 O   0  0  0  0  0  0  0  0  0  0  0  0
   -9.1057  -23.2017    7.9207 C   0  0  0  0  0  0  0  0  0  0  0  0
   -8.9891  -23.8814    9.1220 C   0  0  0  0  0  0  0  0  0  0  0  0
  -10.4114  -24.7148   13.4417 C   0  0  0  0  0  0  0  0  0  0  0  0
   -7.3502  -28.8179   14.5393 C   0  0  0  0  0  0  0  0  0  0  0  0
   -6.1653  -28.5893   15.1460 N   0  0  0  0  0  0  0  0  0  0  0  0
   -3.0682  -28.5000   14.6191 H   0  0  0  0  0  0  0  0  0  0  0  0
   -3.9031  -28.0722   16.1232 H   0  0  0  0  0  0  0  0  0  0  0  0
   -3.5436  -26.8117   14.9320 H   0  0  0  0  0  0  0  0  0  0  0  0
   -4.4863  -27.4470   12.4382 H   0  0  0  0  0  0  0  0  0  0  0  0
   -6.6857  -27.8722   11.3663 H   0  0  0  0  0  0  0  0  0  0  0  0
   -8.8644  -29.1141   11.5398 H   0  0  0  0  0  0  0  0  0  0  0  0
   -9.4183  -29.7268   13.1030 H   0  0  0  0  0  0  0  0  0  0  0  0
  -10.0641  -27.4145   13.6755 H   0  0  0  0  0  0  0  0  0  0  0  0
  -12.0547  -26.1074   12.9361 H   0  0  0  0  0  0  0  0  0  0  0  0
  -11.5930  -24.4204   10.6116 H   0  0  0  0  0  0  0  0  0  0  0  0
  -12.5147  -23.9734   12.0563 H   0  0  0  0  0  0  0  0  0  0  0  0
  -10.4981  -22.6205   12.6792 H   0  0  0  0  0  0  0  0  0  0  0  0
   -8.7862  -24.7053   11.4433 H   0  0  0  0  0  0  0  0  0  0  0  0
   -9.0090  -21.0985   11.0952 H   0  0  0  0  0  0  0  0  0  0  0  0
   -9.2600  -19.9753    8.8655 H   0  0  0  0  0  0  0  0  0  0  0  0
   -8.9458  -24.9626    9.1484 H   0  0  0  0  0  0  0  0  0  0  0  0
   -9.4978  -25.1507   13.8201 H   0  0  0  0  0  0  0  0  0  0  0  0
  -11.0121  -24.4108   14.3020 H   0  0  0  0  0  0  0  0  0  0  0  0
   -8.1202  -29.2082   15.1982 H   0  0  0  0  0  0  0  0  0  0  0  0
  1  2  1  0
  2  3  2  0
  3  4  1  0
  4  5  2  0
  5  6  1  0
  6  7  1  0
  7  8  1  0
  8  9  2  0
  8 10  1  0
 10 11  1  0
 11 12  1  0
 12 13  1  0
 13 14  1  0
 14 15  2  0
 15 16  1  0
 16 17  2  0
 17 18  1  0
 18 19  2  0
 19 20  1  0
 19 21  1  0
 21 22  1  0
 22 23  2  0
 12 24  1  0
  5 25  1  0
 25 26  2  0
 26  2  1  0
 24 10  1  0
 23 14  1  0
 22 17  1  0
  1 27  1  0
  1 28  1  0
  1 29  1  0
  3 30  1  0
  4 31  1  0
  6 32  1  0
  6 33  1  0
  7 34  1  0
 10 35  1  0
 11 36  1  0
 11 37  1  0
 12 38  1  0
 13 39  1  0
 15 40  1  0
 16 41  1  0
 23 42  1  0
 24 43  1  0
 24 44  1  0
 25 45  1  0
M  END
>  <Energy>  (2) 
18.908119274630426

>  <compound_id>  (2) 
1361

>  <target_id>  (2) 
1

>  <reference_id>  (2) 
2

>  <inspiration_ids>  (2) 
[1, 2]

>  <energy_score>  (2) 
-9.876573709736064

>  <distance_score>  (2) 
1.0389379635840035

>  <path>  (2) 
/opt/xchem-fragalysis-2/maxwin/BulkDock/SCRATCH/505732/C1361-P2/C1361-P2.minimised.mol

>  <scratch_subdir>  (2) 
/opt/xchem-fragalysis-2/maxwin/BulkDock/SCRATCH/505732/C1361-P2

>  <fragmenstein_runtime>  (2) 
3.1153757572174072

>  <fragmenstein_outcome>  (2) 
too moved

>  <fragmenstein_mode>  (2) 
expansion

>  <fragmenstein_error>  (2) 


$$$$
C1362-P1
     RDKit          3D

 51 54  0  0  0  0  0  0  0  0999 V2000
   -7.3861  -29.2791    9.9626 C   0  0  0  0  0  0  0  0  0  0  0  0
   -7.5606  -27.9593   10.6378 C   0  0  0  0  0  0  0  0  0  0  0  0
   -8.5236  -27.5414   11.5205 C   0  0  0  0  0  0  0  0  0  0  0  0
   -9.0198  -28.4911   12.6105 C   0  0  0  0  0  0  0  0  0  0  0  0
   -7.8599  -28.8095   13.5626 C   0  0  0  0  0  0  0  0  0  0  0  0
   -6.8250  -29.6525   13.1541 C   0  0  0  0  0  0  0  0  0  0  0  0
   -5.5539  -29.5370   13.7109 C   0  0  0  0  0  0  0  0  0  0  0  0
   -5.3540  -28.6256   14.7301 C   0  0  0  0  0  0  0  0  0  0  0  0
   -3.9670  -28.3365   15.2200 C   0  0  0  0  0  0  0  0  0  0  0  0
   -6.3848  -27.9579   15.2931 N   0  0  0  0  0  0  0  0  0  0  0  0
   -7.6054  -28.0674   14.7056 C   0  0  0  0  0  0  0  0  0  0  0  0
   -8.3197  -26.0204   11.7605 C   0  0  0  0  0  0  0  0  0  0  0  0
   -8.6962  -25.3480   10.5705 O   0  0  0  0  0  0  0  0  0  0  0  0
   -9.1925  -25.4117   12.8704 C   0  0  0  0  0  0  0  0  0  0  0  0
  -10.7458  -25.4196   12.6377 C   0  0  0  0  0  0  0  0  0  0  0  0
  -10.7101  -23.9165   12.3332 C   0  0  0  0  0  0  0  0  0  0  0  0
   -9.3566  -23.8528   13.0329 C   0  0  0  0  0  0  0  0  0  0  0  0
   -6.7694  -26.1181   11.8190 C   0  0  0  0  0  0  0  0  0  0  0  0
   -5.6389  -25.1267   11.6238 C   0  0  0  0  0  0  0  0  0  0  0  0
   -4.4609  -26.0981   11.4571 C   0  0  0  0  0  0  0  0  0  0  0  0
   -5.0587  -27.1985   10.5402 C   0  0  0  0  0  0  0  0  0  0  0  0
   -4.6192  -26.9691    9.1094 C   0  0  0  0  0  0  0  0  0  0  0  0
   -6.5223  -27.0165   10.6568 N   0  0  0  0  0  0  0  0  0  0  0  0
   -6.4231  -29.7390   10.1999 H   0  0  0  0  0  0  0  0  0  0  0  0
   -7.4268  -29.1385    8.8771 H   0  0  0  0  0  0  0  0  0  0  0  0
   -8.1812  -29.9822   10.2270 H   0  0  0  0  0  0  0  0  0  0  0  0
   -9.8571  -28.0599   13.1673 H   0  0  0  0  0  0  0  0  0  0  0  0
   -9.3980  -29.4217   12.1714 H   0  0  0  0  0  0  0  0  0  0  0  0
   -6.9623  -30.3371   12.3240 H   0  0  0  0  0  0  0  0  0  0  0  0
   -4.7307  -30.1206   13.3109 H   0  0  0  0  0  0  0  0  0  0  0  0
   -3.2200  -28.5807   14.4573 H   0  0  0  0  0  0  0  0  0  0  0  0
   -3.7531  -28.9256   16.1147 H   0  0  0  0  0  0  0  0  0  0  0  0
   -3.8584  -27.2716   15.4423 H   0  0  0  0  0  0  0  0  0  0  0  0
   -8.3598  -27.4284   15.1533 H   0  0  0  0  0  0  0  0  0  0  0  0
   -8.1275  -25.7333    9.8651 H   0  0  0  0  0  0  0  0  0  0  0  0
   -8.9655  -25.8727   13.8323 H   0  0  0  0  0  0  0  0  0  0  0  0
  -11.1185  -26.0463   11.8225 H   0  0  0  0  0  0  0  0  0  0  0  0
  -11.3129  -25.6638   13.5445 H   0  0  0  0  0  0  0  0  0  0  0  0
  -10.6765  -23.6775   11.2676 H   0  0  0  0  0  0  0  0  0  0  0  0
  -11.5055  -23.3287   12.7988 H   0  0  0  0  0  0  0  0  0  0  0  0
   -8.6175  -23.2139   12.5470 H   0  0  0  0  0  0  0  0  0  0  0  0
   -9.4583  -23.5316   14.0781 H   0  0  0  0  0  0  0  0  0  0  0  0
   -6.4965  -26.7047   12.6957 H   0  0  0  0  0  0  0  0  0  0  0  0
   -5.7329  -24.5602   10.6971 H   0  0  0  0  0  0  0  0  0  0  0  0
   -5.4994  -24.4282   12.4389 H   0  0  0  0  0  0  0  0  0  0  0  0
   -3.5729  -25.6154   11.0407 H   0  0  0  0  0  0  0  0  0  0  0  0
   -4.1848  -26.5269   12.4281 H   0  0  0  0  0  0  0  0  0  0  0  0
   -4.7422  -28.1877   10.8878 H   0  0  0  0  0  0  0  0  0  0  0  0
   -3.5312  -27.0503    9.0166 H   0  0  0  0  0  0  0  0  0  0  0  0
   -4.9190  -25.9808    8.7430 H   0  0  0  0  0  0  0  0  0  0  0  0
   -5.0686  -27.7124    8.4422 H   0  0  0  0  0  0  0  0  0  0  0  0
  1  2  1  0
  2  3  2  0
  3  4  1  0
  4  5  1  0
  5  6  2  0
  6  7  1  0
  7  8  2  0
  8  9  1  0
  8 10  1  0
 10 11  2  0
  3 12  1  0
 12 13  1  0
 12 14  1  0
 14 15  1  0
 15 16  1  0
 16 17  1  0
 12 18  1  0
 18 19  1  0
 19 20  1  0
 20 21  1  0
 21 22  1  0
 21 23  1  0
 23  2  1  0
 11  5  1  0
 17 14  1  0
 23 18  1  0
  1 24  1  0
  1 25  1  0
  1 26  1  0
  4 27  1  0
  4 28  1  0
  6 29  1  0
  7 30  1  0
  9 31  1  0
  9 32  1  0
  9 33  1  0
 11 34  1  0
 13 35  1  0
 14 36  1  0
 15 37  1  0
 15 38  1  0
 16 39  1  0
 16 40  1  0
 17 41  1  0
 17 42  1  0
 18 43  1  0
 19 44  1  0
 19 45  1  0
 20 46  1  0
 20 47  1  0
 21 48  1  0
 22 49  1  0
 22 50  1  0
 22 51  1  0
M  END
>  <Energy>  (3) 
144.50245804843834

>  <compound_id>  (3) 
1362

>  <target_id>  (3) 
1

>  <reference_id>  (3) 
1

>  <inspiration_ids>  (3) 
[1, 21]

>  <energy_score>  (3) 
-0.4612113698483995

>  <distance_score>  (3) 
1.819369009675458

>  <path>  (3) 
/opt/xchem-fragalysis-2/maxwin/BulkDock/SCRATCH/505732/C1362-P1/C1362-P1.minimised.mol

>  <scratch_subdir>  (3) 
/opt/xchem-fragalysis-2/maxwin/BulkDock/SCRATCH/505732/C1362-P1

>  <fragmenstein_runtime>  (3) 
2.770667552947998

>  <fragmenstein_outcome>  (3) 
too moved

>  <fragmenstein_mode>  (3) 
expansion

>  <fragmenstein_error>  (3) 


$$$$
C1362-P21
     RDKit          3D

 51 54  0  0  0  0  0  0  0  0999 V2000
   -7.5715  -29.1458    9.8084 C   0  0  0  0  0  0  0  0  0  0  0  0
   -7.7599  -27.8245   10.4789 C   0  0  0  0  0  0  0  0  0  0  0  0
   -8.6882  -27.4376   11.4087 C   0  0  0  0  0  0  0  0  0  0  0  0
   -9.1244  -28.4296   12.4933 C   0  0  0  0  0  0  0  0  0  0  0  0
   -7.9518  -28.7209   13.4360 C   0  0  0  0  0  0  0  0  0  0  0  0
   -7.7206  -28.0097   14.6079 C   0  0  0  0  0  0  0  0  0  0  0  0
   -6.4375  -27.9659   15.1656 C   0  0  0  0  0  0  0  0  0  0  0  0
   -5.4139  -28.6714   14.5639 C   0  0  0  0  0  0  0  0  0  0  0  0
   -3.9896  -28.5094   14.9919 C   0  0  0  0  0  0  0  0  0  0  0  0
   -5.6611  -29.5317   13.5628 N   0  0  0  0  0  0  0  0  0  0  0  0
   -6.9095  -29.5450   13.0371 C   0  0  0  0  0  0  0  0  0  0  0  0
   -8.5105  -25.9097   11.6789 C   0  0  0  0  0  0  0  0  0  0  0  0
   -8.9919  -25.1647   10.5753 O   0  0  0  0  0  0  0  0  0  0  0  0
   -9.2971  -25.4078   12.8997 C   0  0  0  0  0  0  0  0  0  0  0  0
  -10.8604  -25.5102   12.7896 C   0  0  0  0  0  0  0  0  0  0  0  0
  -10.9260  -23.9985   12.5631 C   0  0  0  0  0  0  0  0  0  0  0  0
   -9.5579  -23.8939   13.2347 C   0  0  0  0  0  0  0  0  0  0  0  0
   -6.9654  -25.9740   11.6235 C   0  0  0  0  0  0  0  0  0  0  0  0
   -5.8981  -24.9309   11.3586 C   0  0  0  0  0  0  0  0  0  0  0  0
   -4.6880  -25.8589   11.1566 C   0  0  0  0  0  0  0  0  0  0  0  0
   -5.2779  -27.0418   10.3416 C   0  0  0  0  0  0  0  0  0  0  0  0
   -4.8248  -26.9483    8.9032 C   0  0  0  0  0  0  0  0  0  0  0  0
   -6.7473  -26.8560   10.4449 N   0  0  0  0  0  0  0  0  0  0  0  0
   -6.5942  -29.5827   10.0301 H   0  0  0  0  0  0  0  0  0  0  0  0
   -7.6391  -29.0146    8.7231 H   0  0  0  0  0  0  0  0  0  0  0  0
   -8.3438  -29.8655   10.0939 H   0  0  0  0  0  0  0  0  0  0  0  0
   -9.9772  -28.0517   13.0640 H   0  0  0  0  0  0  0  0  0  0  0  0
   -9.4689  -29.3679   12.0428 H   0  0  0  0  0  0  0  0  0  0  0  0
   -8.5014  -27.4161   15.0718 H   0  0  0  0  0  0  0  0  0  0  0  0
   -6.2445  -27.3404   16.0298 H   0  0  0  0  0  0  0  0  0  0  0  0
   -3.3201  -28.6541   14.1375 H   0  0  0  0  0  0  0  0  0  0  0  0
   -3.7403  -29.2533   15.7516 H   0  0  0  0  0  0  0  0  0  0  0  0
   -3.8101  -27.5040   15.3815 H   0  0  0  0  0  0  0  0  0  0  0  0
   -7.0148  -30.2180   12.1929 H   0  0  0  0  0  0  0  0  0  0  0  0
   -8.4553  -25.4548    9.8066 H   0  0  0  0  0  0  0  0  0  0  0  0
   -8.9503  -25.9077   13.7993 H   0  0  0  0  0  0  0  0  0  0  0  0
  -11.2665  -26.1142   11.9734 H   0  0  0  0  0  0  0  0  0  0  0  0
  -11.3369  -25.8309   13.7244 H   0  0  0  0  0  0  0  0  0  0  0  0
  -10.9382  -23.7146   11.5117 H   0  0  0  0  0  0  0  0  0  0  0  0
  -11.7582  -23.5015   13.0592 H   0  0  0  0  0  0  0  0  0  0  0  0
   -8.8923  -23.1418   12.8223 H   0  0  0  0  0  0  0  0  0  0  0  0
   -9.6274  -23.7088   14.3139 H   0  0  0  0  0  0  0  0  0  0  0  0
   -6.6226  -26.5800   12.4650 H   0  0  0  0  0  0  0  0  0  0  0  0
   -6.0977  -24.3797   10.4328 H   0  0  0  0  0  0  0  0  0  0  0  0
   -5.7325  -24.2072   12.1496 H   0  0  0  0  0  0  0  0  0  0  0  0
   -3.8574  -25.3610   10.6550 H   0  0  0  0  0  0  0  0  0  0  0  0
   -4.3238  -26.2200   12.1266 H   0  0  0  0  0  0  0  0  0  0  0  0
   -4.9617  -27.9924   10.7858 H   0  0  0  0  0  0  0  0  0  0  0  0
   -3.7361  -27.0373    8.8281 H   0  0  0  0  0  0  0  0  0  0  0  0
   -5.1213  -25.9977    8.4456 H   0  0  0  0  0  0  0  0  0  0  0  0
   -5.2676  -27.7495    8.3022 H   0  0  0  0  0  0  0  0  0  0  0  0
  1  2  1  0
  2  3  2  0
  3  4  1  0
  4  5  1  0
  5  6  2  0
  6  7  1  0
  7  8  2  0
  8  9  1  0
  8 10  1  0
 10 11  2  0
  3 12  1  0
 12 13  1  0
 12 14  1  0
 14 15  1  0
 15 16  1  0
 16 17  1  0
 12 18  1  0
 18 19  1  0
 19 20  1  0
 20 21  1  0
 21 22  1  0
 21 23  1  0
 23  2  1  0
 11  5  1  0
 17 14  1  0
 23 18  1  0
  1 24  1  0
  1 25  1  0
  1 26  1  0
  4 27  1  0
  4 28  1  0
  6 29  1  0
  7 30  1  0
  9 31  1  0
  9 32  1  0
  9 33  1  0
 11 34  1  0
 13 35  1  0
 14 36  1  0
 15 37  1  0
 15 38  1  0
 16 39  1  0
 16 40  1  0
 17 41  1  0
 17 42  1  0
 18 43  1  0
 19 44  1  0
 19 45  1  0
 20 46  1  0
 20 47  1  0
 21 48  1  0
 22 49  1  0
 22 50  1  0
 22 51  1  0
M  END
>  <Energy>  (4) 
141.58131706567892

>  <compound_id>  (4) 
1362

>  <target_id>  (4) 
1

>  <reference_id>  (4) 
21

>  <inspiration_ids>  (4) 
[1, 21]

>  <energy_score>  (4) 
-3.38235235260629

>  <distance_score>  (4) 
2.028708997246244

>  <path>  (4) 
/opt/xchem-fragalysis-2/maxwin/BulkDock/SCRATCH/505732/C1362-P21/C1362-P21.minimised.mol

>  <scratch_subdir>  (4) 
/opt/xchem-fragalysis-2/maxwin/BulkDock/SCRATCH/505732/C1362-P21

>  <fragmenstein_runtime>  (4) 
3.55985426902771

>  <fragmenstein_outcome>  (4) 
too moved

>  <fragmenstein_mode>  (4) 
expansion

>  <fragmenstein_error>  (4) 


$$$$
C1363-P1
     RDKit          3D

 50 52  0  0  0  0  0  0  0  0999 V2000
   -4.1298  -28.1169   14.5264 C   0  0  0  0  0  0  0  0  0  0  0  0
   -5.4059  -28.1337   13.7330 C   0  0  0  0  0  0  0  0  0  0  0  0
   -5.4226  -27.7133   12.4043 C   0  0  0  0  0  0  0  0  0  0  0  0
   -6.6385  -27.6752   11.7085 C   0  0  0  0  0  0  0  0  0  0  0  0
   -7.8217  -28.0374   12.3554 C   0  0  0  0  0  0  0  0  0  0  0  0
   -9.2001  -27.8750   11.7340 C   0  0  0  0  0  0  0  0  0  0  0  0
   -9.7707  -26.5065   11.5512 N   0  0  0  0  0  0  0  0  0  0  0  0
   -9.6417  -25.5633   12.6266 C   0  0  0  0  0  0  0  0  0  0  0  0
   -8.3539  -25.0667   12.4311 O   0  0  0  0  0  0  0  0  0  0  0  0
   -9.7944  -26.2991   13.8502 N   0  0  0  0  0  0  0  0  0  0  0  0
  -11.0799  -26.3351   14.5696 C   0  0  0  0  0  0  0  0  0  0  0  0
  -10.9925  -27.4808   15.5491 C   0  0  0  0  0  0  0  0  0  0  0  0
  -12.4420  -26.3457   13.9190 C   0  0  0  0  0  0  0  0  0  0  0  0
  -13.5296  -25.8917   14.6882 C   0  0  0  0  0  0  0  0  0  0  0  0
  -14.7812  -25.7020   14.1281 C   0  0  0  0  0  0  0  0  0  0  0  0
  -14.9264  -25.9887   12.7888 C   0  0  0  0  0  0  0  0  0  0  0  0
  -13.9382  -26.4932   12.0262 N   0  0  0  0  0  0  0  0  0  0  0  0
  -12.7360  -26.7003   12.6152 C   0  0  0  0  0  0  0  0  0  0  0  0
  -10.5029  -24.3096   12.6383 C   0  0  0  0  0  0  0  0  0  0  0  0
  -10.2731  -23.0239   11.8075 C   0  0  0  0  0  0  0  0  0  0  0  0
  -10.9017  -22.2833   13.0120 C   0  0  0  0  0  0  0  0  0  0  0  0
  -10.2203  -23.3405   13.8600 C   0  0  0  0  0  0  0  0  0  0  0  0
   -7.6882  -28.4947   13.6657 C   0  0  0  0  0  0  0  0  0  0  0  0
   -6.5301  -28.5371   14.3665 N   0  0  0  0  0  0  0  0  0  0  0  0
   -3.7496  -27.0953   14.6150 H   0  0  0  0  0  0  0  0  0  0  0  0
   -4.2951  -28.5108   15.5341 H   0  0  0  0  0  0  0  0  0  0  0  0
   -3.3744  -28.7400   14.0377 H   0  0  0  0  0  0  0  0  0  0  0  0
   -4.5052  -27.3959   11.9162 H   0  0  0  0  0  0  0  0  0  0  0  0
   -6.6563  -27.3182   10.6810 H   0  0  0  0  0  0  0  0  0  0  0  0
   -9.9235  -28.4800   12.2963 H   0  0  0  0  0  0  0  0  0  0  0  0
   -9.1708  -28.3455   10.7426 H   0  0  0  0  0  0  0  0  0  0  0  0
   -9.3188  -26.0811   10.7464 H   0  0  0  0  0  0  0  0  0  0  0  0
   -7.7781  -25.8139   12.6177 H   0  0  0  0  0  0  0  0  0  0  0  0
   -9.1006  -25.9271   14.4960 H   0  0  0  0  0  0  0  0  0  0  0  0
  -11.0793  -25.4450   15.2037 H   0  0  0  0  0  0  0  0  0  0  0  0
  -10.9176  -28.4420   15.0298 H   0  0  0  0  0  0  0  0  0  0  0  0
  -10.1120  -27.3075   16.1721 H   0  0  0  0  0  0  0  0  0  0  0  0
  -11.8528  -27.5339   16.2257 H   0  0  0  0  0  0  0  0  0  0  0  0
  -13.4018  -25.6658   15.7424 H   0  0  0  0  0  0  0  0  0  0  0  0
  -15.6136  -25.3275   14.7119 H   0  0  0  0  0  0  0  0  0  0  0  0
  -15.8746  -25.8411   12.2804 H   0  0  0  0  0  0  0  0  0  0  0  0
  -12.0076  -27.1464   11.9535 H   0  0  0  0  0  0  0  0  0  0  0  0
  -11.5624  -24.5490   12.5208 H   0  0  0  0  0  0  0  0  0  0  0  0
   -9.2397  -22.7125   11.6636 H   0  0  0  0  0  0  0  0  0  0  0  0
  -10.8029  -22.9915   10.8597 H   0  0  0  0  0  0  0  0  0  0  0  0
  -11.9892  -22.3598   13.0903 H   0  0  0  0  0  0  0  0  0  0  0  0
  -10.6079  -21.2544   13.1864 H   0  0  0  0  0  0  0  0  0  0  0  0
  -10.7100  -23.5474   14.8026 H   0  0  0  0  0  0  0  0  0  0  0  0
   -9.1745  -23.1062   14.0712 H   0  0  0  0  0  0  0  0  0  0  0  0
   -8.5586  -28.8152   14.2258 H   0  0  0  0  0  0  0  0  0  0  0  0
  1  2  1  0
  2  3  2  0
  3  4  1  0
  4  5  2  0
  5  6  1  0
  6  7  1  0
  7  8  1  0
  8  9  1  0
  8 10  1  0
 10 11  1  0
 11 12  1  0
 11 13  1  0
 13 14  2  0
 14 15  1  0
 15 16  2  0
 16 17  1  0
 17 18  2  0
  8 19  1  0
 19 20  1  0
 20 21  1  0
 21 22  1  0
  5 23  1  0
 23 24  2  0
 24  2  1  0
 18 13  1  0
 22 19  1  0
  1 25  1  0
  1 26  1  0
  1 27  1  0
  3 28  1  0
  4 29  1  0
  6 30  1  0
  6 31  1  0
  7 32  1  0
  9 33  1  0
 10 34  1  0
 11 35  1  0
 12 36  1  0
 12 37  1  0
 12 38  1  0
 14 39  1  0
 15 40  1  0
 16 41  1  0
 18 42  1  0
 19 43  1  0
 20 44  1  0
 20 45  1  0
 21 46  1  0
 21 47  1  0
 22 48  1  0
 22 49  1  0
 23 50  1  0
M  END
>  <Energy>  (5) 
-55.469307208418229

>  <compound_id>  (5) 
1363

>  <target_id>  (5) 
1

>  <reference_id>  (5) 
1

>  <inspiration_ids>  (5) 
[1, 30]

>  <energy_score>  (5) 
-4.006299661374946

>  <distance_score>  (5) 
1.1989855459475107

>  <path>  (5) 
/opt/xchem-fragalysis-2/maxwin/BulkDock/SCRATCH/505732/C1363-P1/C1363-P1.minimised.mol

>  <scratch_subdir>  (5) 
/opt/xchem-fragalysis-2/maxwin/BulkDock/SCRATCH/505732/C1363-P1

>  <fragmenstein_runtime>  (5) 
3.816598892211914

>  <fragmenstein_outcome>  (5) 
too moved

>  <fragmenstein_mode>  (5) 
expansion

>  <fragmenstein_error>  (5) 


$$$$
C1363-P30
     RDKit          3D

 50 52  0  0  0  0  0  0  0  0999 V2000
   -3.7070  -27.8046   14.5399 C   0  0  0  0  0  0  0  0  0  0  0  0
   -5.0645  -27.9993   13.9342 C   0  0  0  0  0  0  0  0  0  0  0  0
   -5.3257  -27.5868   12.6300 C   0  0  0  0  0  0  0  0  0  0  0  0
   -6.6046  -27.7784   12.0975 C   0  0  0  0  0  0  0  0  0  0  0  0
   -7.5997  -28.3775   12.8719 C   0  0  0  0  0  0  0  0  0  0  0  0
   -8.9919  -28.6446   12.3521 C   0  0  0  0  0  0  0  0  0  0  0  0
   -9.9500  -27.5504   12.1068 N   0  0  0  0  0  0  0  0  0  0  0  0
   -9.9755  -26.4208   12.9795 C   0  0  0  0  0  0  0  0  0  0  0  0
   -8.7438  -25.8115   12.8292 O   0  0  0  0  0  0  0  0  0  0  0  0
  -10.1170  -26.7502   14.3674 N   0  0  0  0  0  0  0  0  0  0  0  0
  -11.3035  -27.4150   14.9061 C   0  0  0  0  0  0  0  0  0  0  0  0
  -11.2831  -28.9297   14.8124 C   0  0  0  0  0  0  0  0  0  0  0  0
  -12.6549  -26.8437   14.5523 C   0  0  0  0  0  0  0  0  0  0  0  0
  -13.3246  -26.0011   15.4410 C   0  0  0  0  0  0  0  0  0  0  0  0
  -14.5097  -25.3785   15.0683 C   0  0  0  0  0  0  0  0  0  0  0  0
  -15.0005  -25.6204   13.7995 C   0  0  0  0  0  0  0  0  0  0  0  0
  -14.4228  -26.4710   12.9323 N   0  0  0  0  0  0  0  0  0  0  0  0
  -13.2969  -27.0987   13.3454 C   0  0  0  0  0  0  0  0  0  0  0  0
  -10.9690  -25.3292   12.5633 C   0  0  0  0  0  0  0  0  0  0  0  0
  -10.5402  -24.3312   11.4989 C   0  0  0  0  0  0  0  0  0  0  0  0
  -10.1810  -23.3176   12.5964 C   0  0  0  0  0  0  0  0  0  0  0  0
  -11.1105  -24.1039   13.5077 C   0  0  0  0  0  0  0  0  0  0  0  0
   -7.2289  -28.7719   14.1574 C   0  0  0  0  0  0  0  0  0  0  0  0
   -6.0044  -28.5902   14.7043 N   0  0  0  0  0  0  0  0  0  0  0  0
   -3.4230  -26.7491   14.5238 H   0  0  0  0  0  0  0  0  0  0  0  0
   -3.6925  -28.1463   15.5788 H   0  0  0  0  0  0  0  0  0  0  0  0
   -2.9625  -28.3820   13.9830 H   0  0  0  0  0  0  0  0  0  0  0  0
   -4.5537  -27.1069   12.0360 H   0  0  0  0  0  0  0  0  0  0  0  0
   -6.8206  -27.4419   11.0868 H   0  0  0  0  0  0  0  0  0  0  0  0
   -9.4626  -29.3904   12.9964 H   0  0  0  0  0  0  0  0  0  0  0  0
   -8.8771  -29.1827   11.4006 H   0  0  0  0  0  0  0  0  0  0  0  0
   -9.6936  -27.1577   11.2012 H   0  0  0  0  0  0  0  0  0  0  0  0
   -8.7548  -25.2892   13.6408 H   0  0  0  0  0  0  0  0  0  0  0  0
   -9.2810  -27.2478   14.6531 H   0  0  0  0  0  0  0  0  0  0  0  0
  -11.1953  -27.2393   15.9870 H   0  0  0  0  0  0  0  0  0  0  0  0
  -10.3205  -29.3368   15.1331 H   0  0  0  0  0  0  0  0  0  0  0  0
  -12.0468  -29.3657   15.4685 H   0  0  0  0  0  0  0  0  0  0  0  0
  -11.4945  -29.2954   13.8036 H   0  0  0  0  0  0  0  0  0  0  0  0
  -12.9156  -25.8137   16.4294 H   0  0  0  0  0  0  0  0  0  0  0  0
  -15.0327  -24.7099   15.7422 H   0  0  0  0  0  0  0  0  0  0  0  0
  -15.9098  -25.1426   13.4465 H   0  0  0  0  0  0  0  0  0  0  0  0
  -12.8774  -27.7859   12.6133 H   0  0  0  0  0  0  0  0  0  0  0  0
  -11.9097  -25.7338   12.2019 H   0  0  0  0  0  0  0  0  0  0  0  0
   -9.7257  -24.7130   10.8820 H   0  0  0  0  0  0  0  0  0  0  0  0
  -11.3938  -24.0401   10.8789 H   0  0  0  0  0  0  0  0  0  0  0  0
  -10.4529  -22.2817   12.4388 H   0  0  0  0  0  0  0  0  0  0  0  0
   -9.1347  -23.3229   12.9081 H   0  0  0  0  0  0  0  0  0  0  0  0
  -12.1356  -23.7233   13.5268 H   0  0  0  0  0  0  0  0  0  0  0  0
  -10.7240  -24.2243   14.5190 H   0  0  0  0  0  0  0  0  0  0  0  0
   -7.9279  -29.2723   14.8206 H   0  0  0  0  0  0  0  0  0  0  0  0
  1  2  1  0
  2  3  2  0
  3  4  1  0
  4  5  2  0
  5  6  1  0
  6  7  1  0
  7  8  1  0
  8  9  1  0
  8 10  1  0
 10 11  1  0
 11 12  1  0
 11 13  1  0
 13 14  2  0
 14 15  1  0
 15 16  2  0
 16 17  1  0
 17 18  2  0
  8 19  1  0
 19 20  1  0
 20 21  1  0
 21 22  1  0
  5 23  1  0
 23 24  2  0
 24  2  1  0
 18 13  1  0
 22 19  1  0
  1 25  1  0
  1 26  1  0
  1 27  1  0
  3 28  1  0
  4 29  1  0
  6 30  1  0
  6 31  1  0
  7 32  1  0
  9 33  1  0
 10 34  1  0
 11 35  1  0
 12 36  1  0
 12 37  1  0
 12 38  1  0
 14 39  1  0
 15 40  1  0
 16 41  1  0
 18 42  1  0
 19 43  1  0
 20 44  1  0
 20 45  1  0
 21 46  1  0
 21 47  1  0
 22 48  1  0
 22 49  1  0
 23 50  1  0
M  END
>  <Energy>  (6) 
-63.588424864986102

>  <compound_id>  (6) 
1363

>  <target_id>  (6) 
1

>  <reference_id>  (6) 
30

>  <inspiration_ids>  (6) 
[1, 30]

>  <energy_score>  (6) 
-12.125417317941043

>  <distance_score>  (6) 
1.4864870758216593

>  <path>  (6) 
/opt/xchem-fragalysis-2/maxwin/BulkDock/SCRATCH/505732/C1363-P30/C1363-P30.minimised.mol

>  <scratch_subdir>  (6) 
/opt/xchem-fragalysis-2/maxwin/BulkDock/SCRATCH/505732/C1363-P30

>  <fragmenstein_runtime>  (6) 
3.9706976413726807

>  <fragmenstein_outcome>  (6) 
too moved

>  <fragmenstein_mode>  (6) 
expansion

>  <fragmenstein_error>  (6) 


$$$$
C1364-P1
     RDKit          3D

 51 54  0  0  0  0  0  0  0  0999 V2000
  -14.4010  -24.9109    9.8449 C   0  0  0  0  0  0  0  0  0  0  0  0
  -13.2831  -25.8255    9.4975 C   0  0  0  0  0  0  0  0  0  0  0  0
  -13.2693  -27.1130   10.0292 C   0  0  0  0  0  0  0  0  0  0  0  0
  -12.0883  -27.8303   10.0574 C   0  0  0  0  0  0  0  0  0  0  0  0
  -10.9183  -27.2291    9.5965 C   0  0  0  0  0  0  0  0  0  0  0  0
   -9.5903  -27.5498   10.2871 C   0  0  0  0  0  0  0  0  0  0  0  0
   -9.1970  -29.0308   10.3519 C   0  0  0  0  0  0  0  0  0  0  0  0
   -9.2313  -29.4281   11.7698 N   0  0  0  0  0  0  0  0  0  0  0  0
   -8.9655  -28.2210   12.5729 C   0  0  0  0  0  0  0  0  0  0  0  0
   -7.5129  -28.0906   12.9588 C   0  0  0  0  0  0  0  0  0  0  0  0
   -6.4997  -27.6012   12.1364 C   0  0  0  0  0  0  0  0  0  0  0  0
   -5.1892  -27.5078   12.6220 C   0  0  0  0  0  0  0  0  0  0  0  0
   -4.9119  -27.9130   13.9252 C   0  0  0  0  0  0  0  0  0  0  0  0
   -3.5312  -27.7842   14.4945 C   0  0  0  0  0  0  0  0  0  0  0  0
   -5.8659  -28.4154   14.7353 N   0  0  0  0  0  0  0  0  0  0  0  0
   -7.1166  -28.5012   14.2331 C   0  0  0  0  0  0  0  0  0  0  0  0
   -9.6847  -27.1277   11.7858 C   0  0  0  0  0  0  0  0  0  0  0  0
   -9.2719  -25.6943   12.0836 C   0  0  0  0  0  0  0  0  0  0  0  0
   -8.4000  -25.1496   11.3978 O   0  0  0  0  0  0  0  0  0  0  0  0
   -9.9914  -24.9642   13.2593 C   0  0  0  0  0  0  0  0  0  0  0  0
  -11.4583  -24.5144   13.0250 C   0  0  0  0  0  0  0  0  0  0  0  0
  -10.9287  -23.1122   12.7082 C   0  0  0  0  0  0  0  0  0  0  0  0
   -9.6701  -23.4574   13.4923 C   0  0  0  0  0  0  0  0  0  0  0  0
  -11.0168  -26.1036    8.7790 C   0  0  0  0  0  0  0  0  0  0  0  0
  -12.1885  -25.3626    8.7752 C   0  0  0  0  0  0  0  0  0  0  0  0
  -14.2203  -24.4419   10.8174 H   0  0  0  0  0  0  0  0  0  0  0  0
  -15.3537  -25.4497    9.8854 H   0  0  0  0  0  0  0  0  0  0  0  0
  -14.5134  -24.1202    9.0951 H   0  0  0  0  0  0  0  0  0  0  0  0
  -14.1432  -27.5085   10.5417 H   0  0  0  0  0  0  0  0  0  0  0  0
  -12.0540  -28.7555   10.6296 H   0  0  0  0  0  0  0  0  0  0  0  0
   -8.7884  -27.0060    9.7722 H   0  0  0  0  0  0  0  0  0  0  0  0
   -9.8421  -29.6822    9.7543 H   0  0  0  0  0  0  0  0  0  0  0  0
   -8.1747  -29.1522    9.9734 H   0  0  0  0  0  0  0  0  0  0  0  0
   -8.5278  -30.1472   11.9455 H   0  0  0  0  0  0  0  0  0  0  0  0
   -9.5249  -28.3395   13.5115 H   0  0  0  0  0  0  0  0  0  0  0  0
   -6.7047  -27.2626   11.1242 H   0  0  0  0  0  0  0  0  0  0  0  0
   -4.4031  -27.1007   11.9921 H   0  0  0  0  0  0  0  0  0  0  0  0
   -3.4948  -28.1592   15.5223 H   0  0  0  0  0  0  0  0  0  0  0  0
   -3.2162  -26.7369   14.5020 H   0  0  0  0  0  0  0  0  0  0  0  0
   -2.8221  -28.3656   13.8969 H   0  0  0  0  0  0  0  0  0  0  0  0
   -7.8249  -28.9264   14.9314 H   0  0  0  0  0  0  0  0  0  0  0  0
  -10.7376  -27.1765   12.0982 H   0  0  0  0  0  0  0  0  0  0  0  0
   -9.8810  -25.5500   14.1823 H   0  0  0  0  0  0  0  0  0  0  0  0
  -12.0790  -24.5632   13.9267 H   0  0  0  0  0  0  0  0  0  0  0  0
  -11.9932  -25.0027   12.2080 H   0  0  0  0  0  0  0  0  0  0  0  0
  -10.7330  -22.9516   11.6434 H   0  0  0  0  0  0  0  0  0  0  0  0
  -11.5039  -22.2833   13.1192 H   0  0  0  0  0  0  0  0  0  0  0  0
   -9.7035  -23.1577   14.5460 H   0  0  0  0  0  0  0  0  0  0  0  0
   -8.7666  -23.0508   13.0326 H   0  0  0  0  0  0  0  0  0  0  0  0
  -10.1378  -25.7307    8.2609 H   0  0  0  0  0  0  0  0  0  0  0  0
  -12.2003  -24.3926    8.2840 H   0  0  0  0  0  0  0  0  0  0  0  0
  1  2  1  0
  2  3  2  0
  3  4  1  0
  4  5  2  0
  5  6  1  0
  6  7  1  0
  7  8  1  0
  8  9  1  0
  9 10  1  0
 10 11  2  0
 11 12  1  0
 12 13  2  0
 13 14  1  0
 13 15  1  0
 15 16  2  0
  9 17  1  0
 17 18  1  0
 18 19  2  0
 18 20  1  0
 20 21  1  0
 21 22  1  0
 22 23  1  0
  5 24  1  0
 24 25  2  0
 25  2  1  0
 17  6  1  0
 23 20  1  0
 16 10  1  0
  1 26  1  0
  1 27  1  0
  1 28  1  0
  3 29  1  0
  4 30  1  0
  6 31  1  0
  7 32  1  0
  7 33  1  0
  8 34  1  0
  9 35  1  0
 11 36  1  0
 12 37  1  0
 14 38  1  0
 14 39  1  0
 14 40  1  0
 16 41  1  0
 17 42  1  0
 20 43  1  0
 21 44  1  0
 21 45  1  0
 22 46  1  0
 22 47  1  0
 23 48  1  0
 23 49  1  0
 24 50  1  0
 25 51  1  0
M  END
>  <Energy>  (7) 
79.371028921709637

>  <compound_id>  (7) 
1364

>  <target_id>  (7) 
1

>  <reference_id>  (7) 
1

>  <inspiration_ids>  (7) 
[1, 48]

>  <energy_score>  (7) 
-23.591277852298695

>  <distance_score>  (7) 
1.8846755579155878

>  <path>  (7) 
/opt/xchem-fragalysis-2/maxwin/BulkDock/SCRATCH/505732/C1364-P1/C1364-P1.minimised.mol

>  <scratch_subdir>  (7) 
/opt/xchem-fragalysis-2/maxwin/BulkDock/SCRATCH/505732/C1364-P1

>  <fragmenstein_runtime>  (7) 
5.8943564891815186

>  <fragmenstein_outcome>  (7) 
too moved

>  <fragmenstein_mode>  (7) 
expansion

>  <fragmenstein_error>  (7) 


$$$$
C1364-P48
     RDKit          3D

 51 54  0  0  0  0  0  0  0  0999 V2000
  -14.4638  -24.9289    9.8002 C   0  0  0  0  0  0  0  0  0  0  0  0
  -13.3036  -25.7649    9.3954 C   0  0  0  0  0  0  0  0  0  0  0  0
  -13.2748  -27.1120    9.7523 C   0  0  0  0  0  0  0  0  0  0  0  0
  -12.0737  -27.7962    9.7525 C   0  0  0  0  0  0  0  0  0  0  0  0
  -10.9015  -27.1041    9.4473 C   0  0  0  0  0  0  0  0  0  0  0  0
   -9.6034  -27.4628   10.1741 C   0  0  0  0  0  0  0  0  0  0  0  0
   -9.2332  -28.9502   10.2283 C   0  0  0  0  0  0  0  0  0  0  0  0
   -9.4209  -29.3852   11.6219 N   0  0  0  0  0  0  0  0  0  0  0  0
   -9.1727  -28.2114   12.4817 C   0  0  0  0  0  0  0  0  0  0  0  0
   -7.7469  -28.1451   12.9605 C   0  0  0  0  0  0  0  0  0  0  0  0
   -6.6762  -27.6717   12.2010 C   0  0  0  0  0  0  0  0  0  0  0  0
   -5.3939  -27.6435   12.7496 C   0  0  0  0  0  0  0  0  0  0  0  0
   -5.2055  -28.1113   14.0451 C   0  0  0  0  0  0  0  0  0  0  0  0
   -3.8720  -28.0141   14.7076 C   0  0  0  0  0  0  0  0  0  0  0  0
   -6.2152  -28.5914   14.7995 N   0  0  0  0  0  0  0  0  0  0  0  0
   -7.4455  -28.6024   14.2455 C   0  0  0  0  0  0  0  0  0  0  0  0
   -9.7779  -27.0693   11.6717 C   0  0  0  0  0  0  0  0  0  0  0  0
   -9.3429  -25.6524   12.0246 C   0  0  0  0  0  0  0  0  0  0  0  0
   -8.4562  -25.0854   11.3762 O   0  0  0  0  0  0  0  0  0  0  0  0
  -10.0909  -24.9476   13.1975 C   0  0  0  0  0  0  0  0  0  0  0  0
  -11.5714  -24.5473   12.9476 C   0  0  0  0  0  0  0  0  0  0  0  0
  -11.0670  -23.1523   12.5657 C   0  0  0  0  0  0  0  0  0  0  0  0
   -9.8300  -23.4241   13.4130 C   0  0  0  0  0  0  0  0  0  0  0  0
  -10.9861  -25.8672    8.8070 C   0  0  0  0  0  0  0  0  0  0  0  0
  -12.1869  -25.1756    8.8118 C   0  0  0  0  0  0  0  0  0  0  0  0
  -14.3269  -24.5563   10.8203 H   0  0  0  0  0  0  0  0  0  0  0  0
  -15.3972  -25.5005    9.7572 H   0  0  0  0  0  0  0  0  0  0  0  0
  -14.5847  -24.0704    9.1305 H   0  0  0  0  0  0  0  0  0  0  0  0
  -14.1608  -27.5954   10.1575 H   0  0  0  0  0  0  0  0  0  0  0  0
  -12.0407  -28.7864   10.2026 H   0  0  0  0  0  0  0  0  0  0  0  0
   -8.7742  -26.9201    9.7038 H   0  0  0  0  0  0  0  0  0  0  0  0
   -9.8150  -29.5745    9.5433 H   0  0  0  0  0  0  0  0  0  0  0  0
   -8.1779  -29.0737    9.9564 H   0  0  0  0  0  0  0  0  0  0  0  0
   -8.7717  -30.1408   11.8437 H   0  0  0  0  0  0  0  0  0  0  0  0
   -9.8020  -28.3311   13.3744 H   0  0  0  0  0  0  0  0  0  0  0  0
   -6.8186  -27.2897   11.1936 H   0  0  0  0  0  0  0  0  0  0  0  0
   -4.5649  -27.2371   12.1777 H   0  0  0  0  0  0  0  0  0  0  0  0
   -3.7678  -28.7776   15.4848 H   0  0  0  0  0  0  0  0  0  0  0  0
   -3.7843  -27.0297   15.1720 H   0  0  0  0  0  0  0  0  0  0  0  0
   -3.0636  -28.1595   13.9848 H   0  0  0  0  0  0  0  0  0  0  0  0
   -8.2149  -29.0016   14.9018 H   0  0  0  0  0  0  0  0  0  0  0  0
  -10.8519  -27.0842   11.9074 H   0  0  0  0  0  0  0  0  0  0  0  0
   -9.9647  -25.5237   14.1238 H   0  0  0  0  0  0  0  0  0  0  0  0
  -12.1899  -24.5699   13.8513 H   0  0  0  0  0  0  0  0  0  0  0  0
  -12.0994  -25.0815   12.1558 H   0  0  0  0  0  0  0  0  0  0  0  0
  -10.8439  -23.0476   11.5003 H   0  0  0  0  0  0  0  0  0  0  0  0
  -11.6752  -22.3171   12.8993 H   0  0  0  0  0  0  0  0  0  0  0  0
   -9.9150  -23.1081   14.4582 H   0  0  0  0  0  0  0  0  0  0  0  0
   -8.9253  -22.9867   12.9881 H   0  0  0  0  0  0  0  0  0  0  0  0
  -10.0798  -25.3889    8.4447 H   0  0  0  0  0  0  0  0  0  0  0  0
  -12.2128  -24.1502    8.4513 H   0  0  0  0  0  0  0  0  0  0  0  0
  1  2  1  0
  2  3  2  0
  3  4  1  0
  4  5  2  0
  5  6  1  0
  6  7  1  0
  7  8  1  0
  8  9  1  0
  9 10  1  0
 10 11  2  0
 11 12  1  0
 12 13  2  0
 13 14  1  0
 13 15  1  0
 15 16  2  0
  9 17  1  0
 17 18  1  0
 18 19  2  0
 18 20  1  0
 20 21  1  0
 21 22  1  0
 22 23  1  0
  5 24  1  0
 24 25  2  0
 25  2  1  0
 17  6  1  0
 23 20  1  0
 16 10  1  0
  1 26  1  0
  1 27  1  0
  1 28  1  0
  3 29  1  0
  4 30  1  0
  6 31  1  0
  7 32  1  0
  7 33  1  0
  8 34  1  0
  9 35  1  0
 11 36  1  0
 12 37  1  0
 14 38  1  0
 14 39  1  0
 14 40  1  0
 16 41  1  0
 17 42  1  0
 20 43  1  0
 21 44  1  0
 21 45  1  0
 22 46  1  0
 22 47  1  0
 23 48  1  0
 23 49  1  0
 24 50  1  0
 25 51  1  0
M  END
>  <Energy>  (8) 
79.118240252363719

>  <compound_id>  (8) 
1364

>  <target_id>  (8) 
1

>  <reference_id>  (8) 
48

>  <inspiration_ids>  (8) 
[1, 48]

>  <energy_score>  (8) 
-23.844066521644745

>  <distance_score>  (8) 
1.8584839782397622

>  <path>  (8) 
/opt/xchem-fragalysis-2/maxwin/BulkDock/SCRATCH/505732/C1364-P48/C1364-P48.minimised.mol

>  <scratch_subdir>  (8) 
/opt/xchem-fragalysis-2/maxwin/BulkDock/SCRATCH/505732/C1364-P48

>  <fragmenstein_runtime>  (8) 
5.080836057662964

>  <fragmenstein_outcome>  (8) 
too moved

>  <fragmenstein_mode>  (8) 
expansion

>  <fragmenstein_error>  (8) 


$$$$
C1361-P1
     RDKit          3D

 45 48  0  0  0  0  0  0  0  0999 V2000
   -3.4247  -27.8952   15.1327 C   0  0  0  0  0  0  0  0  0  0  0  0
   -4.5831  -28.0622   14.1988 C   0  0  0  0  0  0  0  0  0  0  0  0
   -4.5433  -27.4591   12.9472 C   0  0  0  0  0  0  0  0  0  0  0  0
   -5.5987  -27.6701   12.0699 C   0  0  0  0  0  0  0  0  0  0  0  0
   -6.6611  -28.4910   12.4496 C   0  0  0  0  0  0  0  0  0  0  0  0
   -7.8443  -28.6643   11.5477 C   0  0  0  0  0  0  0  0  0  0  0  0
   -8.7624  -27.6250   11.8900 N   0  0  0  0  0  0  0  0  0  0  0  0
   -8.7769  -26.1370   11.5019 C   0  0  0  0  0  0  0  0  0  0  0  0
   -8.0866  -25.5384   10.7793 O   0  0  0  0  0  0  0  0  0  0  0  0
   -9.8523  -25.4701   12.3453 C   0  0  0  0  0  0  0  0  0  0  0  0
  -11.2901  -25.2681   11.7926 C   0  0  0  0  0  0  0  0  0  0  0  0
  -11.4005  -24.1456   12.8574 C   0  0  0  0  0  0  0  0  0  0  0  0
  -11.5748  -24.7320   14.1625 N   0  0  0  0  0  0  0  0  0  0  0  0
  -12.7298  -25.3777   14.6456 C   0  0  0  0  0  0  0  0  0  0  0  0
  -12.5661  -26.2550   15.7380 C   0  0  0  0  0  0  0  0  0  0  0  0
  -13.6581  -26.6792   16.5031 C   0  0  0  0  0  0  0  0  0  0  0  0
  -14.9202  -26.1929   16.1485 C   0  0  0  0  0  0  0  0  0  0  0  0
  -16.1368  -26.3423   16.7552 N   0  0  0  0  0  0  0  0  0  0  0  0
  -16.9592  -25.6617   15.9790 C   0  0  0  0  0  0  0  0  0  0  0  0
  -18.6404  -25.5425   16.3131 Cl  0  0  0  0  0  0  0  0  0  0  0  0
  -16.3651  -25.0606   14.9009 O   0  0  0  0  0  0  0  0  0  0  0  0
  -15.0502  -25.3983   15.0224 C   0  0  0  0  0  0  0  0  0  0  0  0
  -14.0021  -24.9882   14.2120 C   0  0  0  0  0  0  0  0  0  0  0  0
   -9.8839  -23.9294   12.6065 C   0  0  0  0  0  0  0  0  0  0  0  0
   -6.6306  -29.0217   13.7335 C   0  0  0  0  0  0  0  0  0  0  0  0
   -5.6261  -28.8211   14.6134 N   0  0  0  0  0  0  0  0  0  0  0  0
   -2.5018  -28.2350   14.6516 H   0  0  0  0  0  0  0  0  0  0  0  0
   -3.3100  -26.8458   15.4179 H   0  0  0  0  0  0  0  0  0  0  0  0
   -3.5651  -28.4943   16.0366 H   0  0  0  0  0  0  0  0  0  0  0  0
   -3.7050  -26.8323   12.6576 H   0  0  0  0  0  0  0  0  0  0  0  0
   -5.5935  -27.1812   11.0975 H   0  0  0  0  0  0  0  0  0  0  0  0
   -8.3279  -29.6347   11.6930 H   0  0  0  0  0  0  0  0  0  0  0  0
   -7.5583  -28.5589   10.4966 H   0  0  0  0  0  0  0  0  0  0  0  0
   -9.4544  -27.7932   12.6082 H   0  0  0  0  0  0  0  0  0  0  0  0
   -9.8425  -25.9886   13.3210 H   0  0  0  0  0  0  0  0  0  0  0  0
  -11.9622  -26.1241   11.9009 H   0  0  0  0  0  0  0  0  0  0  0  0
  -11.3448  -24.9167   10.7557 H   0  0  0  0  0  0  0  0  0  0  0  0
  -12.0596  -23.3021   12.6615 H   0  0  0  0  0  0  0  0  0  0  0  0
  -11.1824  -24.1103   14.8709 H   0  0  0  0  0  0  0  0  0  0  0  0
  -11.5634  -26.5529   16.0415 H   0  0  0  0  0  0  0  0  0  0  0  0
  -13.5284  -27.3128   17.3735 H   0  0  0  0  0  0  0  0  0  0  0  0
  -14.1643  -24.3052   13.3889 H   0  0  0  0  0  0  0  0  0  0  0  0
   -9.3145  -23.5592   13.4604 H   0  0  0  0  0  0  0  0  0  0  0  0
   -9.6734  -23.2925   11.7422 H   0  0  0  0  0  0  0  0  0  0  0  0
   -7.4359  -29.6451   14.1073 H   0  0  0  0  0  0  0  0  0  0  0  0
  1  2  1  0
  2  3  2  0
  3  4  1  0
  4  5  2  0
  5  6  1  0
  6  7  1  0
  7  8  1  0
  8  9  2  0
  8 10  1  0
 10 11  1  0
 11 12  1  0
 12 13  1  0
 13 14  1  0
 14 15  2  0
 15 16  1  0
 16 17  2  0
 17 18  1  0
 18 19  2  0
 19 20  1  0
 19 21  1  0
 21 22  1  0
 22 23  2  0
 12 24  1  0
  5 25  1  0
 25 26  2  0
 26  2  1  0
 24 10  1  0
 23 14  1  0
 22 17  1  0
  1 27  1  0
  1 28  1  0
  1 29  1  0
  3 30  1  0
  4 31  1  0
  6 32  1  0
  6 33  1  0
  7 34  1  0
 10 35  1  0
 11 36  1  0
 11 37  1  0
 12 38  1  0
 13 39  1  0
 15 40  1  0
 16 41  1  0
 23 42  1  0
 24 43  1  0
 24 44  1  0
 25 45  1  0
M  END
>  <Energy>  (9) 
27.516005054934745

>  <compound_id>  (9) 
1361

>  <target_id>  (9) 
1

>  <reference_id>  (9) 
1

>  <inspiration_ids>  (9) 
[1, 87]

>  <energy_score>  (9) 
0.8476689594119193

>  <distance_score>  (9) 
1.4877047875509786

>  <path>  (9) 
/opt/xchem-fragalysis-2/maxwin/BulkDock/SCRATCH/505732/C1361-P1/C1361-P1.minimised.mol

>  <scratch_subdir>  (9) 
/opt/xchem-fragalysis-2/maxwin/BulkDock/SCRATCH/505732/C1361-P1

>  <fragmenstein_runtime>  (9) 
4.922955751419067

>  <fragmenstein_outcome>  (9) 
too moved

>  <fragmenstein_mode>  (9) 
expansion

>  <fragmenstein_error>  (9) 


$$$$
C1361-P87
     RDKit          3D

 45 48  0  0  0  0  0  0  0  0999 V2000
   -3.8076  -28.2592   14.9863 C   0  0  0  0  0  0  0  0  0  0  0  0
   -4.8574  -28.3431   13.9315 C   0  0  0  0  0  0  0  0  0  0  0  0
   -4.6444  -27.7152   12.7102 C   0  0  0  0  0  0  0  0  0  0  0  0
   -5.6453  -27.7696   11.7524 C   0  0  0  0  0  0  0  0  0  0  0  0
   -6.8248  -28.4595   12.0274 C   0  0  0  0  0  0  0  0  0  0  0  0
   -7.9749  -28.4044   11.0664 C   0  0  0  0  0  0  0  0  0  0  0  0
   -8.8611  -27.4205   11.5981 N   0  0  0  0  0  0  0  0  0  0  0  0
   -8.7717  -25.8853   11.5873 C   0  0  0  0  0  0  0  0  0  0  0  0
   -8.0009  -25.1775   11.0761 O   0  0  0  0  0  0  0  0  0  0  0  0
   -9.8726  -25.3885   12.5028 C   0  0  0  0  0  0  0  0  0  0  0  0
  -11.2997  -25.0709   11.9890 C   0  0  0  0  0  0  0  0  0  0  0  0
  -11.4169  -24.1890   13.2616 C   0  0  0  0  0  0  0  0  0  0  0  0
  -11.6387  -25.0367   14.4040 N   0  0  0  0  0  0  0  0  0  0  0  0
  -12.8438  -25.5267   14.9174 C   0  0  0  0  0  0  0  0  0  0  0  0
  -12.7781  -26.3611   16.0513 C   0  0  0  0  0  0  0  0  0  0  0  0
  -13.9253  -26.6905   16.7773 C   0  0  0  0  0  0  0  0  0  0  0  0
  -15.1422  -26.1740   16.3251 C   0  0  0  0  0  0  0  0  0  0  0  0
  -16.3949  -26.2425   16.8673 N   0  0  0  0  0  0  0  0  0  0  0  0
  -17.1455  -25.5825   16.0054 C   0  0  0  0  0  0  0  0  0  0  0  0
  -18.8373  -25.3851   16.2313 Cl  0  0  0  0  0  0  0  0  0  0  0  0
  -16.4702  -25.0780   14.9250 O   0  0  0  0  0  0  0  0  0  0  0  0
  -15.1780  -25.4513   15.1454 C   0  0  0  0  0  0  0  0  0  0  0  0
  -14.0721  -25.1413   14.3705 C   0  0  0  0  0  0  0  0  0  0  0  0
   -9.8943  -23.9420   13.0833 C   0  0  0  0  0  0  0  0  0  0  0  0
   -6.9501  -29.0457   13.2845 C   0  0  0  0  0  0  0  0  0  0  0  0
   -5.9970  -29.0036   14.2384 N   0  0  0  0  0  0  0  0  0  0  0  0
   -2.8557  -28.6494   14.6142 H   0  0  0  0  0  0  0  0  0  0  0  0
   -3.6920  -27.2126   15.2705 H   0  0  0  0  0  0  0  0  0  0  0  0
   -4.0911  -28.8402   15.8675 H   0  0  0  0  0  0  0  0  0  0  0  0
   -3.7271  -27.1680   12.5152 H   0  0  0  0  0  0  0  0  0  0  0  0
   -5.5161  -27.2396   10.8111 H   0  0  0  0  0  0  0  0  0  0  0  0
   -8.4927  -29.3657   11.0028 H   0  0  0  0  0  0  0  0  0  0  0  0
   -7.6531  -28.0957   10.0673 H   0  0  0  0  0  0  0  0  0  0  0  0
   -9.7076  -27.7063   12.0743 H   0  0  0  0  0  0  0  0  0  0  0  0
   -9.8868  -26.1039   13.3468 H   0  0  0  0  0  0  0  0  0  0  0  0
  -11.9781  -25.9265   11.9208 H   0  0  0  0  0  0  0  0  0  0  0  0
  -11.3494  -24.5164   11.0474 H   0  0  0  0  0  0  0  0  0  0  0  0
  -12.0596  -23.3102   13.2203 H   0  0  0  0  0  0  0  0  0  0  0  0
  -10.8811  -25.0223   15.0843 H   0  0  0  0  0  0  0  0  0  0  0  0
  -11.8137  -26.7027   16.4238 H   0  0  0  0  0  0  0  0  0  0  0  0
  -13.8725  -27.2844   17.6829 H   0  0  0  0  0  0  0  0  0  0  0  0
  -14.1626  -24.5246   13.4866 H   0  0  0  0  0  0  0  0  0  0  0  0
   -9.3254  -23.7764   14.0018 H   0  0  0  0  0  0  0  0  0  0  0  0
   -9.6677  -23.1351   12.3808 H   0  0  0  0  0  0  0  0  0  0  0  0
   -7.8585  -29.5631   13.5774 H   0  0  0  0  0  0  0  0  0  0  0  0
  1  2  1  0
  2  3  2  0
  3  4  1  0
  4  5  2  0
  5  6  1  0
  6  7  1  0
  7  8  1  0
  8  9  2  0
  8 10  1  0
 10 11  1  0
 11 12  1  0
 12 13  1  0
 13 14  1  0
 14 15  2  0
 15 16  1  0
 16 17  2  0
 17 18  1  0
 18 19  2  0
 19 20  1  0
 19 21  1  0
 21 22  1  0
 22 23  2  0
 12 24  1  0
  5 25  1  0
 25 26  2  0
 26  2  1  0
 24 10  1  0
 23 14  1  0
 22 17  1  0
  1 27  1  0
  1 28  1  0
  1 29  1  0
  3 30  1  0
  4 31  1  0
  6 32  1  0
  6 33  1  0
  7 34  1  0
 10 35  1  0
 11 36  1  0
 11 37  1  0
 12 38  1  0
 13 39  1  0
 15 40  1  0
 16 41  1  0
 23 42  1  0
 24 43  1  0
 24 44  1  0
 25 45  1  0
M  END
>  <Energy>  (10) 
27.798537632063134

>  <compound_id>  (10) 
1361

>  <target_id>  (10) 
1

>  <reference_id>  (10) 
87

>  <inspiration_ids>  (10) 
[1, 87]

>  <energy_score>  (10) 
1.1302015365404259

>  <distance_score>  (10) 
1.5644311455408064

>  <path>  (10) 
/opt/xchem-fragalysis-2/maxwin/BulkDock/SCRATCH/505732/C1361-P87/C1361-P87.minimised.mol

>  <scratch_subdir>  (10) 
/opt/xchem-fragalysis-2/maxwin/BulkDock/SCRATCH/505732/C1361-P87

>  <fragmenstein_runtime>  (10) 
6.2070152759552

>  <fragmenstein_outcome>  (10) 
too moved

>  <fragmenstein_mode>  (10) 
expansion

>  <fragmenstein_error>  (10) 


$$$$
C1365-P2
     RDKit          3D

 43 45  0  0  0  0  0  0  0  0999 V2000
   -4.8867  -32.1983   13.5337 C   0  0  0  0  0  0  0  0  0  0  0  0
   -5.6880  -31.8163   14.7613 C   0  0  0  0  0  0  0  0  0  0  0  0
   -5.5983  -30.0686   15.1412 S   0  0  0  0  0  0  0  0  0  0  0  0
   -4.2055  -29.7363   15.3462 O   0  0  0  0  0  0  0  0  0  0  0  0
   -6.6002  -29.7638   16.1423 O   0  0  0  0  0  0  0  0  0  0  0  0
   -6.1052  -29.3359   13.6719 N   0  0  0  0  0  0  0  0  0  0  0  0
   -7.5546  -29.4837   13.3875 C   0  0  0  0  0  0  0  0  0  0  0  0
   -7.8252  -29.0473   11.9465 C   0  0  0  0  0  0  0  0  0  0  0  0
   -7.4840  -27.5653   11.7019 C   0  0  0  0  0  0  0  0  0  0  0  0
   -8.6280  -26.7084   12.2626 C   0  0  0  0  0  0  0  0  0  0  0  0
   -9.4121  -27.1531   13.1035 O   0  0  0  0  0  0  0  0  0  0  0  0
   -8.8439  -25.4479   11.7778 O   0  0  0  0  0  0  0  0  0  0  0  0
   -7.8206  -24.7862   11.0797 N   0  0  0  0  0  0  0  0  0  0  0  0
   -8.2982  -23.8572   10.1041 C   0  0  0  0  0  0  0  0  0  0  0  0
   -8.4932  -22.4917   10.3971 C   0  0  0  0  0  0  0  0  0  0  0  0
   -8.9506  -21.5843    9.4182 C   0  0  0  0  0  0  0  0  0  0  0  0
   -9.1970  -22.0768    8.1322 C   0  0  0  0  0  0  0  0  0  0  0  0
   -9.5383  -21.4534    6.9568 N   0  0  0  0  0  0  0  0  0  0  0  0
   -9.5160  -22.4328    6.0720 C   0  0  0  0  0  0  0  0  0  0  0  0
   -9.7225  -22.1763    4.3890 Cl  0  0  0  0  0  0  0  0  0  0  0  0
   -9.2520  -23.6694    6.5863 O   0  0  0  0  0  0  0  0  0  0  0  0
   -9.0249  -23.4301    7.9029 C   0  0  0  0  0  0  0  0  0  0  0  0
   -8.6290  -24.3628    8.8458 C   0  0  0  0  0  0  0  0  0  0  0  0
   -6.0471  -27.3120   12.2019 C   0  0  0  0  0  0  0  0  0  0  0  0
   -5.6797  -27.9169   13.5713 C   0  0  0  0  0  0  0  0  0  0  0  0
   -4.9283  -33.2807   13.3776 H   0  0  0  0  0  0  0  0  0  0  0  0
   -5.2774  -31.7144   12.6335 H   0  0  0  0  0  0  0  0  0  0  0  0
   -3.8362  -31.9105   13.6402 H   0  0  0  0  0  0  0  0  0  0  0  0
   -5.2993  -32.3393   15.6415 H   0  0  0  0  0  0  0  0  0  0  0  0
   -6.7401  -32.0901   14.6494 H   0  0  0  0  0  0  0  0  0  0  0  0
   -7.8447  -30.5352   13.4728 H   0  0  0  0  0  0  0  0  0  0  0  0
   -8.1447  -28.9159   14.1121 H   0  0  0  0  0  0  0  0  0  0  0  0
   -8.8735  -29.2502   11.6949 H   0  0  0  0  0  0  0  0  0  0  0  0
   -7.2196  -29.6639   11.2685 H   0  0  0  0  0  0  0  0  0  0  0  0
   -7.5105  -27.4113   10.6147 H   0  0  0  0  0  0  0  0  0  0  0  0
   -7.2659  -24.2314   11.7422 H   0  0  0  0  0  0  0  0  0  0  0  0
   -8.2334  -22.1029   11.3808 H   0  0  0  0  0  0  0  0  0  0  0  0
   -9.0324  -20.5278    9.6393 H   0  0  0  0  0  0  0  0  0  0  0  0
   -8.5032  -25.4079    8.5941 H   0  0  0  0  0  0  0  0  0  0  0  0
   -5.3710  -27.7670   11.4639 H   0  0  0  0  0  0  0  0  0  0  0  0
   -5.8077  -26.2442   12.1933 H   0  0  0  0  0  0  0  0  0  0  0  0
   -4.5911  -27.8483   13.6770 H   0  0  0  0  0  0  0  0  0  0  0  0
   -6.1255  -27.3751   14.4057 H   0  0  0  0  0  0  0  0  0  0  0  0
  1  2  1  0
  2  3  1  0
  3  4  2  0
  3  5  2  0
  3  6  1  0
  6  7  1  0
  7  8  1  0
  8  9  1  0
  9 10  1  0
 10 11  2  0
 10 12  1  0
 12 13  1  0
 13 14  1  0
 14 15  2  0
 15 16  1  0
 16 17  2  0
 17 18  1  0
 18 19  2  0
 19 20  1  0
 19 21  1  0
 21 22  1  0
 22 23  2  0
  9 24  1  0
 24 25  1  0
 25  6  1  0
 23 14  1  0
 22 17  1  0
  1 26  1  0
  1 27  1  0
  1 28  1  0
  2 29  1  0
  2 30  1  0
  7 31  1  0
  7 32  1  0
  8 33  1  0
  8 34  1  0
  9 35  1  0
 13 36  1  0
 15 37  1  0
 16 38  1  0
 23 39  1  0
 24 40  1  0
 24 41  1  0
 25 42  1  0
 25 43  1  0
M  END
>  <Energy>  (11) 
-14.311498818210499

>  <compound_id>  (11) 
1365

>  <target_id>  (11) 
1

>  <reference_id>  (11) 
2

>  <inspiration_ids>  (11) 
[2, 1]

>  <energy_score>  (11) 
-59.73823304720136

>  <distance_score>  (11) 
1.463123139736234

>  <path>  (11) 
/opt/xchem-fragalysis-2/maxwin/BulkDock/SCRATCH/505732/C1365-P2/C1365-P2.minimised.mol

>  <scratch_subdir>  (11) 
/opt/xchem-fragalysis-2/maxwin/BulkDock/SCRATCH/505732/C1365-P2

>  <fragmenstein_runtime>  (11) 
2.3169689178466797

>  <fragmenstein_outcome>  (11) 
too moved

>  <fragmenstein_mode>  (11) 
expansion

>  <fragmenstein_error>  (11) 


$$$$
C1365-P1
     RDKit          3D

 43 45  0  0  0  0  0  0  0  0999 V2000
   -5.7093  -31.0942   14.9243 C   0  0  0  0  0  0  0  0  0  0  0  0
   -4.6024  -30.0768   14.7613 C   0  0  0  0  0  0  0  0  0  0  0  0
   -5.1371  -28.3741   14.8844 S   0  0  0  0  0  0  0  0  0  0  0  0
   -3.9793  -27.5500   14.6178 O   0  0  0  0  0  0  0  0  0  0  0  0
   -5.9079  -28.2082   16.0936 O   0  0  0  0  0  0  0  0  0  0  0  0
   -6.2034  -28.1984   13.6038 N   0  0  0  0  0  0  0  0  0  0  0  0
   -7.6435  -28.4033   13.7896 C   0  0  0  0  0  0  0  0  0  0  0  0
   -8.2769  -28.9021   12.4941 C   0  0  0  0  0  0  0  0  0  0  0  0
   -8.0651  -27.9421   11.3106 C   0  0  0  0  0  0  0  0  0  0  0  0
   -9.3085  -27.0748   11.1266 C   0  0  0  0  0  0  0  0  0  0  0  0
   -9.8170  -26.3912   12.0100 O   0  0  0  0  0  0  0  0  0  0  0  0
   -9.8341  -27.1911    9.8557 O   0  0  0  0  0  0  0  0  0  0  0  0
  -11.0737  -26.5003    9.7086 N   0  0  0  0  0  0  0  0  0  0  0  0
  -11.1934  -25.5383    8.6659 C   0  0  0  0  0  0  0  0  0  0  0  0
  -12.0464  -24.4235    8.8304 C   0  0  0  0  0  0  0  0  0  0  0  0
  -12.0633  -23.3555    7.9048 C   0  0  0  0  0  0  0  0  0  0  0  0
  -11.1873  -23.4058    6.8122 C   0  0  0  0  0  0  0  0  0  0  0  0
  -10.8423  -22.4664    5.8725 N   0  0  0  0  0  0  0  0  0  0  0  0
   -9.8792  -23.0679    5.2000 C   0  0  0  0  0  0  0  0  0  0  0  0
   -9.0038  -22.2752    3.9576 Cl  0  0  0  0  0  0  0  0  0  0  0  0
   -9.6165  -24.3568    5.5668 O   0  0  0  0  0  0  0  0  0  0  0  0
  -10.4420  -24.5632    6.6274 C   0  0  0  0  0  0  0  0  0  0  0  0
  -10.4490  -25.6734    7.4789 C   0  0  0  0  0  0  0  0  0  0  0  0
   -6.7975  -27.0913   11.4866 C   0  0  0  0  0  0  0  0  0  0  0  0
   -5.7075  -27.8170   12.2785 C   0  0  0  0  0  0  0  0  0  0  0  0
   -6.2511  -30.9508   15.8630 H   0  0  0  0  0  0  0  0  0  0  0  0
   -6.4278  -31.0369   14.1026 H   0  0  0  0  0  0  0  0  0  0  0  0
   -5.2919  -32.1061   14.9276 H   0  0  0  0  0  0  0  0  0  0  0  0
   -3.8539  -30.2141   15.5494 H   0  0  0  0  0  0  0  0  0  0  0  0
   -4.0995  -30.1940   13.7964 H   0  0  0  0  0  0  0  0  0  0  0  0
   -7.8282  -29.1462   14.5706 H   0  0  0  0  0  0  0  0  0  0  0  0
   -8.1138  -27.4681   14.1090 H   0  0  0  0  0  0  0  0  0  0  0  0
   -9.3435  -29.0981   12.6578 H   0  0  0  0  0  0  0  0  0  0  0  0
   -7.8233  -29.8692   12.2377 H   0  0  0  0  0  0  0  0  0  0  0  0
   -7.9568  -28.5568   10.4070 H   0  0  0  0  0  0  0  0  0  0  0  0
  -11.3771  -26.1087   10.6078 H   0  0  0  0  0  0  0  0  0  0  0  0
  -12.6707  -24.3507    9.7177 H   0  0  0  0  0  0  0  0  0  0  0  0
  -12.6800  -22.4932    8.0829 H   0  0  0  0  0  0  0  0  0  0  0  0
   -9.7858  -26.5097    7.3022 H   0  0  0  0  0  0  0  0  0  0  0  0
   -6.4103  -26.8167   10.4975 H   0  0  0  0  0  0  0  0  0  0  0  0
   -7.0447  -26.1439   11.9796 H   0  0  0  0  0  0  0  0  0  0  0  0
   -5.3871  -28.7177   11.7431 H   0  0  0  0  0  0  0  0  0  0  0  0
   -4.8461  -27.1469   12.3555 H   0  0  0  0  0  0  0  0  0  0  0  0
  1  2  1  0
  2  3  1  0
  3  4  2  0
  3  5  2  0
  3  6  1  0
  6  7  1  0
  7  8  1  0
  8  9  1  0
  9 10  1  0
 10 11  2  0
 10 12  1  0
 12 13  1  0
 13 14  1  0
 14 15  2  0
 15 16  1  0
 16 17  2  0
 17 18  1  0
 18 19  2  0
 19 20  1  0
 19 21  1  0
 21 22  1  0
 22 23  2  0
  9 24  1  0
 24 25  1  0
 25  6  1  0
 23 14  1  0
 22 17  1  0
  1 26  1  0
  1 27  1  0
  1 28  1  0
  2 29  1  0
  2 30  1  0
  7 31  1  0
  7 32  1  0
  8 33  1  0
  8 34  1  0
  9 35  1  0
 13 36  1  0
 15 37  1  0
 16 38  1  0
 23 39  1  0
 24 40  1  0
 24 41  1  0
 25 42  1  0
 25 43  1  0
M  END
>  <Energy>  (12) 
-23.479762476766599

>  <compound_id>  (12) 
1365

>  <target_id>  (12) 
1

>  <reference_id>  (12) 
1

>  <inspiration_ids>  (12) 
[2, 1]

>  <energy_score>  (12) 
-68.9064967057571

>  <distance_score>  (12) 
2.8922121429937966

>  <path>  (12) 
/opt/xchem-fragalysis-2/maxwin/BulkDock/SCRATCH/505732/C1365-P1/C1365-P1.minimised.mol

>  <scratch_subdir>  (12) 
/opt/xchem-fragalysis-2/maxwin/BulkDock/SCRATCH/505732/C1365-P1

>  <fragmenstein_runtime>  (12) 
2.941821575164795

>  <fragmenstein_outcome>  (12) 
too moved

>  <fragmenstein_mode>  (12) 
expansion

>  <fragmenstein_error>  (12) 


$$$$
C1366-P2
     RDKit          3D

 33 35  0  0  0  0  0  0  0  0999 V2000
  -10.8915  -23.0982   13.0102 O   0  0  0  0  0  0  0  0  0  0  0  0
  -11.1859  -24.2845   12.4469 C   0  0  0  0  0  0  0  0  0  0  0  0
  -11.1163  -24.3826   11.1761 N   0  0  0  0  0  0  0  0  0  0  0  0
  -11.0845  -25.7041   10.5595 C   0  0  0  0  0  0  0  0  0  0  0  0
  -10.4629  -25.6059    9.1578 C   0  0  0  0  0  0  0  0  0  0  0  0
   -9.0424  -25.1460    9.1463 N   0  0  0  0  0  0  0  0  0  0  0  0
   -8.9944  -23.7324    9.0067 C   0  0  0  0  0  0  0  0  0  0  0  0
   -8.8094  -22.8655   10.0941 C   0  0  0  0  0  0  0  0  0  0  0  0
   -8.8696  -21.4697    9.9549 C   0  0  0  0  0  0  0  0  0  0  0  0
   -9.1471  -20.8782    8.7157 C   0  0  0  0  0  0  0  0  0  0  0  0
   -9.2640  -21.7154    7.6071 C   0  0  0  0  0  0  0  0  0  0  0  0
   -9.4202  -21.4271    6.2770 N   0  0  0  0  0  0  0  0  0  0  0  0
   -9.3895  -22.6132    5.7050 C   0  0  0  0  0  0  0  0  0  0  0  0
   -9.4480  -22.8066    4.0028 Cl  0  0  0  0  0  0  0  0  0  0  0  0
   -9.2656  -23.6703    6.5603 O   0  0  0  0  0  0  0  0  0  0  0  0
   -9.1639  -23.0816    7.7857 C   0  0  0  0  0  0  0  0  0  0  0  0
  -11.5917  -25.3382   13.3506 C   0  0  0  0  0  0  0  0  0  0  0  0
  -12.8727  -25.9827   13.3451 C   0  0  0  0  0  0  0  0  0  0  0  0
  -12.9943  -26.9261   14.3401 C   0  0  0  0  0  0  0  0  0  0  0  0
  -11.5612  -27.0690   15.2618 S   0  0  0  0  0  0  0  0  0  0  0  0
  -10.7892  -25.8512   14.3465 C   0  0  0  0  0  0  0  0  0  0  0  0
  -10.9033  -23.1177   13.9777 H   0  0  0  0  0  0  0  0  0  0  0  0
  -10.4880  -26.4102   11.1501 H   0  0  0  0  0  0  0  0  0  0  0  0
  -12.1022  -26.0980   10.4624 H   0  0  0  0  0  0  0  0  0  0  0  0
  -11.0939  -24.9859    8.5071 H   0  0  0  0  0  0  0  0  0  0  0  0
  -10.4757  -26.6130    8.7222 H   0  0  0  0  0  0  0  0  0  0  0  0
   -8.6746  -25.5077    8.2629 H   0  0  0  0  0  0  0  0  0  0  0  0
   -8.6113  -23.2841   11.0788 H   0  0  0  0  0  0  0  0  0  0  0  0
   -8.6909  -20.8439   10.8274 H   0  0  0  0  0  0  0  0  0  0  0  0
   -9.2004  -19.8080    8.5832 H   0  0  0  0  0  0  0  0  0  0  0  0
  -13.6703  -25.7469   12.6498 H   0  0  0  0  0  0  0  0  0  0  0  0
  -13.8497  -27.5492   14.5648 H   0  0  0  0  0  0  0  0  0  0  0  0
   -9.7742  -25.5791   14.5789 H   0  0  0  0  0  0  0  0  0  0  0  0
  1  2  1  0
  2  3  2  3
  3  4  1  0
  4  5  1  0
  5  6  1  0
  6  7  1  0
  7  8  2  0
  8  9  1  0
  9 10  2  0
 10 11  1  0
 11 12  1  0
 12 13  2  0
 13 14  1  0
 13 15  1  0
 15 16  1  0
  2 17  1  0
 17 18  1  0
 18 19  2  0
 19 20  1  0
 20 21  1  0
 16  7  1  0
 21 17  2  0
 16 11  2  0
  1 22  1  0
  4 23  1  0
  4 24  1  0
  5 25  1  0
  5 26  1  0
  6 27  1  0
  8 28  1  0
  9 29  1  0
 10 30  1  0
 18 31  1  0
 19 32  1  0
 21 33  1  0
M  END
>  <Energy>  (13) 
49.034980775701101

>  <compound_id>  (13) 
1366

>  <target_id>  (13) 
1

>  <reference_id>  (13) 
2

>  <inspiration_ids>  (13) 
[2, 9]

>  <energy_score>  (13) 
-20.93998336948698

>  <distance_score>  (13) 
0.9055830317794744

>  <path>  (13) 
/opt/xchem-fragalysis-2/maxwin/BulkDock/SCRATCH/505732/C1366-P2/C1366-P2.minimised.mol

>  <scratch_subdir>  (13) 
/opt/xchem-fragalysis-2/maxwin/BulkDock/SCRATCH/505732/C1366-P2

>  <fragmenstein_runtime>  (13) 
1.4905695915222168

>  <fragmenstein_outcome>  (13) 
acceptable

>  <fragmenstein_mode>  (13) 
expansion

>  <fragmenstein_error>  (13) 


$$$$
C1366-P9
     RDKit          3D

 33 35  0  0  0  0  0  0  0  0999 V2000
  -10.0577  -23.4656   12.4251 O   0  0  0  0  0  0  0  0  0  0  0  0
  -10.4867  -24.6649   11.9753 C   0  0  0  0  0  0  0  0  0  0  0  0
  -10.2647  -24.9456   10.7489 N   0  0  0  0  0  0  0  0  0  0  0  0
  -10.5310  -26.2782   10.1981 C   0  0  0  0  0  0  0  0  0  0  0  0
   -9.7480  -26.4494    8.8766 C   0  0  0  0  0  0  0  0  0  0  0  0
  -10.5457  -26.3296    7.6281 N   0  0  0  0  0  0  0  0  0  0  0  0
  -10.9274  -24.9971    7.3354 C   0  0  0  0  0  0  0  0  0  0  0  0
  -12.0366  -24.3996    7.9608 C   0  0  0  0  0  0  0  0  0  0  0  0
  -12.4385  -23.0834    7.6834 C   0  0  0  0  0  0  0  0  0  0  0  0
  -11.7422  -22.2874    6.7640 C   0  0  0  0  0  0  0  0  0  0  0  0
  -10.6227  -22.8421    6.1441 C   0  0  0  0  0  0  0  0  0  0  0  0
   -9.7318  -22.2764    5.2765 N   0  0  0  0  0  0  0  0  0  0  0  0
   -8.8889  -23.2613    5.0512 C   0  0  0  0  0  0  0  0  0  0  0  0
   -7.5883  -23.0623    3.9610 Cl  0  0  0  0  0  0  0  0  0  0  0  0
   -9.1431  -24.4329    5.7043 O   0  0  0  0  0  0  0  0  0  0  0  0
  -10.2695  -24.1569    6.4222 C   0  0  0  0  0  0  0  0  0  0  0  0
  -11.1617  -25.4937   12.9527 C   0  0  0  0  0  0  0  0  0  0  0  0
  -12.4919  -26.0190   12.8439 C   0  0  0  0  0  0  0  0  0  0  0  0
  -12.8726  -26.7379   13.9560 C   0  0  0  0  0  0  0  0  0  0  0  0
  -11.6249  -26.8191   15.1222 S   0  0  0  0  0  0  0  0  0  0  0  0
  -10.5922  -25.8562   14.1590 C   0  0  0  0  0  0  0  0  0  0  0  0
  -10.3123  -23.2908   13.3457 H   0  0  0  0  0  0  0  0  0  0  0  0
  -10.1637  -27.0385   10.8986 H   0  0  0  0  0  0  0  0  0  0  0  0
  -11.6015  -26.4447   10.0483 H   0  0  0  0  0  0  0  0  0  0  0  0
   -9.3548  -27.4739    8.8688 H   0  0  0  0  0  0  0  0  0  0  0  0
   -8.8718  -25.7895    8.8363 H   0  0  0  0  0  0  0  0  0  0  0  0
   -9.8977  -26.5851    6.8773 H   0  0  0  0  0  0  0  0  0  0  0  0
  -12.6266  -24.9839    8.6607 H   0  0  0  0  0  0  0  0  0  0  0  0
  -13.3320  -22.7145    8.1744 H   0  0  0  0  0  0  0  0  0  0  0  0
  -12.0349  -21.2829    6.5075 H   0  0  0  0  0  0  0  0  0  0  0  0
  -13.1426  -25.8593   11.9916 H   0  0  0  0  0  0  0  0  0  0  0  0
  -13.8181  -27.2326   14.1335 H   0  0  0  0  0  0  0  0  0  0  0  0
   -9.6037  -25.6197   14.5238 H   0  0  0  0  0  0  0  0  0  0  0  0
  1  2  1  0
  2  3  2  3
  3  4  1  0
  4  5  1  0
  5  6  1  0
  6  7  1  0
  7  8  2  0
  8  9  1  0
  9 10  2  0
 10 11  1  0
 11 12  1  0
 12 13  2  0
 13 14  1  0
 13 15  1  0
 15 16  1  0
  2 17  1  0
 17 18  1  0
 18 19  2  0
 19 20  1  0
 20 21  1  0
 16  7  1  0
 21 17  2  0
 16 11  2  0
  1 22  1  0
  4 23  1  0
  4 24  1  0
  5 25  1  0
  5 26  1  0
  6 27  1  0
  8 28  1  0
  9 29  1  0
 10 30  1  0
 18 31  1  0
 19 32  1  0
 21 33  1  0
M  END
>  <Energy>  (14) 
44.42361887934446

>  <compound_id>  (14) 
1366

>  <target_id>  (14) 
1

>  <reference_id>  (14) 
9

>  <inspiration_ids>  (14) 
[2, 9]

>  <energy_score>  (14) 
-25.551345265845132

>  <distance_score>  (14) 
2.4384006378287646

>  <path>  (14) 
/opt/xchem-fragalysis-2/maxwin/BulkDock/SCRATCH/505732/C1366-P9/C1366-P9.minimised.mol

>  <scratch_subdir>  (14) 
/opt/xchem-fragalysis-2/maxwin/BulkDock/SCRATCH/505732/C1366-P9

>  <fragmenstein_runtime>  (14) 
1.605283498764038

>  <fragmenstein_outcome>  (14) 
too moved

>  <fragmenstein_mode>  (14) 
expansion

>  <fragmenstein_error>  (14) 


$$$$
C1367-P2
     RDKit          3D

 46 49  0  0  0  0  0  0  0  0999 V2000
    2.4656  -28.1957   11.4338 C   0  0  0  0  0  0  0  0  0  0  0  0
    1.1813  -28.6632   10.9229 N   0  0  0  0  0  0  0  0  0  0  0  0
    0.6191  -27.7294    9.9471 C   0  0  0  0  0  0  0  0  0  0  0  0
   -0.8377  -28.1460    9.6570 C   0  0  0  0  0  0  0  0  0  0  0  0
   -1.8720  -27.7956   10.7073 N   0  0  0  0  0  0  0  0  0  0  0  0
   -3.3848  -27.9268   10.6873 C   0  0  0  0  0  0  0  0  0  0  0  0
   -4.0972  -28.4056    9.8814 O   0  0  0  0  0  0  0  0  0  0  0  0
   -3.9189  -27.1808   11.9465 C   0  0  0  0  0  0  0  0  0  0  0  0
   -4.3722  -25.7922   11.5368 C   0  0  0  0  0  0  0  0  0  0  0  0
   -5.8183  -26.0084   11.0719 C   0  0  0  0  0  0  0  0  0  0  0  0
   -6.7225  -24.8672   11.4138 N   0  0  0  0  0  0  0  0  0  0  0  0
   -7.5766  -24.1875   10.5127 C   0  0  0  0  0  0  0  0  0  0  0  0
   -8.0605  -22.8963   10.8621 C   0  0  0  0  0  0  0  0  0  0  0  0
   -8.7527  -22.0506    9.9594 C   0  0  0  0  0  0  0  0  0  0  0  0
   -8.9857  -22.5348    8.6713 C   0  0  0  0  0  0  0  0  0  0  0  0
   -9.5064  -21.9435    7.5413 N   0  0  0  0  0  0  0  0  0  0  0  0
   -9.3753  -22.8791    6.6195 C   0  0  0  0  0  0  0  0  0  0  0  0
   -9.7271  -22.6040    4.9590 Cl  0  0  0  0  0  0  0  0  0  0  0  0
   -8.8741  -24.0684    7.0734 O   0  0  0  0  0  0  0  0  0  0  0  0
   -8.5978  -23.8330    8.3876 C   0  0  0  0  0  0  0  0  0  0  0  0
   -7.9613  -24.7098    9.2736 C   0  0  0  0  0  0  0  0  0  0  0  0
   -6.2065  -27.3150   11.7823 C   0  0  0  0  0  0  0  0  0  0  0  0
   -5.0751  -27.7717   12.5376 O   0  0  0  0  0  0  0  0  0  0  0  0
   -1.2187  -29.0091   11.3803 C   0  0  0  0  0  0  0  0  0  0  0  0
    0.1944  -28.8181   11.9880 C   0  0  0  0  0  0  0  0  0  0  0  0
    2.3882  -27.2227   11.9326 H   0  0  0  0  0  0  0  0  0  0  0  0
    3.1918  -28.1073   10.6184 H   0  0  0  0  0  0  0  0  0  0  0  0
    2.8765  -28.9164   12.1492 H   0  0  0  0  0  0  0  0  0  0  0  0
    0.6351  -26.6956   10.3171 H   0  0  0  0  0  0  0  0  0  0  0  0
    1.2010  -27.7688    9.0194 H   0  0  0  0  0  0  0  0  0  0  0  0
   -1.1511  -27.4832    8.8355 H   0  0  0  0  0  0  0  0  0  0  0  0
   -0.9614  -29.1285    9.1677 H   0  0  0  0  0  0  0  0  0  0  0  0
   -3.1352  -27.1341   12.7073 H   0  0  0  0  0  0  0  0  0  0  0  0
   -4.3304  -25.1229   12.3958 H   0  0  0  0  0  0  0  0  0  0  0  0
   -3.7415  -25.3583   10.7545 H   0  0  0  0  0  0  0  0  0  0  0  0
   -5.8140  -26.1761    9.9898 H   0  0  0  0  0  0  0  0  0  0  0  0
   -6.2638  -24.1739   12.0115 H   0  0  0  0  0  0  0  0  0  0  0  0
   -7.7893  -22.4747   11.8300 H   0  0  0  0  0  0  0  0  0  0  0  0
   -8.9948  -21.0312   10.2367 H   0  0  0  0  0  0  0  0  0  0  0  0
   -7.6794  -25.7004    8.9438 H   0  0  0  0  0  0  0  0  0  0  0  0
   -6.4481  -28.0859   11.0411 H   0  0  0  0  0  0  0  0  0  0  0  0
   -7.0780  -27.2391   12.4335 H   0  0  0  0  0  0  0  0  0  0  0  0
   -1.3670  -29.9671   10.8501 H   0  0  0  0  0  0  0  0  0  0  0  0
   -1.8583  -29.1685   12.2637 H   0  0  0  0  0  0  0  0  0  0  0  0
    0.1823  -27.9460   12.6499 H   0  0  0  0  0  0  0  0  0  0  0  0
    0.4442  -29.6944   12.5970 H   0  0  0  0  0  0  0  0  0  0  0  0
  1  2  1  0
  2  3  1  0
  3  4  1  0
  4  5  1  0
  5  6  1  0
  6  7  2  0
  6  8  1  0
  8  9  1  0
  9 10  1  0
 10 11  1  0
 11 12  1  0
 12 13  2  0
 13 14  1  0
 14 15  2  0
 15 16  1  0
 16 17  2  0
 17 18  1  0
 17 19  1  0
 19 20  1  0
 20 21  2  0
 10 22  1  0
 22 23  1  0
  5 24  1  0
 24 25  1  0
 25  2  1  0
 23  8  1  0
 21 12  1  0
 20 15  1  0
  1 26  1  0
  1 27  1  0
  1 28  1  0
  3 29  1  0
  3 30  1  0
  4 31  1  0
  4 32  1  0
  8 33  1  0
  9 34  1  0
  9 35  1  0
 10 36  1  0
 11 37  1  0
 13 38  1  0
 14 39  1  0
 21 40  1  0
 22 41  1  0
 22 42  1  0
 24 43  1  0
 24 44  1  0
 25 45  1  0
 25 46  1  0
M  END
>  <Energy>  (15) 
188.34088209401986

>  <compound_id>  (15) 
1367

>  <target_id>  (15) 
1

>  <reference_id>  (15) 
2

>  <inspiration_ids>  (15) 
[2, 21]

>  <energy_score>  (15) 
30.561134604726732

>  <distance_score>  (15) 
2.0536504240166407

>  <path>  (15) 
/opt/xchem-fragalysis-2/maxwin/BulkDock/SCRATCH/505732/C1367-P2/C1367-P2.minimised.mol

>  <scratch_subdir>  (15) 
/opt/xchem-fragalysis-2/maxwin/BulkDock/SCRATCH/505732/C1367-P2

>  <fragmenstein_runtime>  (15) 
3.821803092956543

>  <fragmenstein_outcome>  (15) 
too moved

>  <fragmenstein_mode>  (15) 
expansion

>  <fragmenstein_error>  (15) 


$$$$
C1367-P21
     RDKit          3D

 46 49  0  0  0  0  0  0  0  0999 V2000
    0.6028  -28.2018    6.1668 C   0  0  0  0  0  0  0  0  0  0  0  0
   -0.4243  -28.3270    7.1922 N   0  0  0  0  0  0  0  0  0  0  0  0
   -1.6721  -28.8760    6.6761 C   0  0  0  0  0  0  0  0  0  0  0  0
   -2.4959  -29.5521    7.7956 C   0  0  0  0  0  0  0  0  0  0  0  0
   -2.5238  -28.8510    9.1303 N   0  0  0  0  0  0  0  0  0  0  0  0
   -3.3803  -29.1013   10.3622 C   0  0  0  0  0  0  0  0  0  0  0  0
   -4.1632  -29.9517   10.5852 O   0  0  0  0  0  0  0  0  0  0  0  0
   -3.1181  -27.9138   11.3357 C   0  0  0  0  0  0  0  0  0  0  0  0
   -3.6406  -26.6077   10.7622 C   0  0  0  0  0  0  0  0  0  0  0  0
   -5.0966  -26.6538   11.1736 C   0  0  0  0  0  0  0  0  0  0  0  0
   -5.7496  -25.3218   11.1050 N   0  0  0  0  0  0  0  0  0  0  0  0
   -6.6104  -25.1472    9.9843 C   0  0  0  0  0  0  0  0  0  0  0  0
   -7.9181  -25.6498   10.0362 C   0  0  0  0  0  0  0  0  0  0  0  0
   -8.7877  -25.6028    8.9245 C   0  0  0  0  0  0  0  0  0  0  0  0
   -8.3524  -24.9809    7.7465 C   0  0  0  0  0  0  0  0  0  0  0  0
   -9.0077  -24.6813    6.5752 N   0  0  0  0  0  0  0  0  0  0  0  0
   -8.1273  -23.9614    5.9157 C   0  0  0  0  0  0  0  0  0  0  0  0
   -8.5253  -23.1862    4.4327 Cl  0  0  0  0  0  0  0  0  0  0  0  0
   -6.8973  -23.8610    6.5140 O   0  0  0  0  0  0  0  0  0  0  0  0
   -7.0629  -24.4875    7.7189 C   0  0  0  0  0  0  0  0  0  0  0  0
   -6.1546  -24.5722    8.7836 C   0  0  0  0  0  0  0  0  0  0  0  0
   -4.9562  -27.2278   12.5819 C   0  0  0  0  0  0  0  0  0  0  0  0
   -3.8028  -28.0821   12.5885 O   0  0  0  0  0  0  0  0  0  0  0  0
   -1.1747  -29.5640    9.2397 C   0  0  0  0  0  0  0  0  0  0  0  0
    0.0132  -29.1091    8.3401 C   0  0  0  0  0  0  0  0  0  0  0  0
    0.8856  -29.1722    5.7435 H   0  0  0  0  0  0  0  0  0  0  0  0
    1.5025  -27.7327    6.5798 H   0  0  0  0  0  0  0  0  0  0  0  0
    0.2538  -27.5589    5.3513 H   0  0  0  0  0  0  0  0  0  0  0  0
   -2.2539  -28.0574    6.2361 H   0  0  0  0  0  0  0  0  0  0  0  0
   -1.5047  -29.6184    5.8855 H   0  0  0  0  0  0  0  0  0  0  0  0
   -3.5436  -29.4426    7.4712 H   0  0  0  0  0  0  0  0  0  0  0  0
   -2.4237  -30.6546    7.8170 H   0  0  0  0  0  0  0  0  0  0  0  0
   -2.0448  -27.8626   11.5423 H   0  0  0  0  0  0  0  0  0  0  0  0
   -3.5270  -26.5028    9.6807 H   0  0  0  0  0  0  0  0  0  0  0  0
   -3.1317  -25.7664   11.2461 H   0  0  0  0  0  0  0  0  0  0  0  0
   -5.6338  -27.3855   10.5545 H   0  0  0  0  0  0  0  0  0  0  0  0
   -5.0499  -24.5755   11.1107 H   0  0  0  0  0  0  0  0  0  0  0  0
   -8.2708  -26.1153   10.9539 H   0  0  0  0  0  0  0  0  0  0  0  0
   -9.7973  -25.9917    8.9887 H   0  0  0  0  0  0  0  0  0  0  0  0
   -5.1582  -24.1700    8.6780 H   0  0  0  0  0  0  0  0  0  0  0  0
   -5.8385  -27.7944   12.8931 H   0  0  0  0  0  0  0  0  0  0  0  0
   -4.7581  -26.4550   13.3181 H   0  0  0  0  0  0  0  0  0  0  0  0
   -1.2618  -30.6616    9.3377 H   0  0  0  0  0  0  0  0  0  0  0  0
   -0.8436  -29.3079   10.2585 H   0  0  0  0  0  0  0  0  0  0  0  0
    0.7067  -28.5050    8.9378 H   0  0  0  0  0  0  0  0  0  0  0  0
    0.5611  -30.0090    8.0309 H   0  0  0  0  0  0  0  0  0  0  0  0
  1  2  1  0
  2  3  1  0
  3  4  1  0
  4  5  1  0
  5  6  1  0
  6  7  2  0
  6  8  1  0
  8  9  1  0
  9 10  1  0
 10 11  1  0
 11 12  1  0
 12 13  2  0
 13 14  1  0
 14 15  2  0
 15 16  1  0
 16 17  2  0
 17 18  1  0
 17 19  1  0
 19 20  1  0
 20 21  2  0
 10 22  1  0
 22 23  1  0
  5 24  1  0
 24 25  1  0
 25  2  1  0
 23  8  1  0
 21 12  1  0
 20 15  1  0
  1 26  1  0
  1 27  1  0
  1 28  1  0
  3 29  1  0
  3 30  1  0
  4 31  1  0
  4 32  1  0
  8 33  1  0
  9 34  1  0
  9 35  1  0
 10 36  1  0
 11 37  1  0
 13 38  1  0
 14 39  1  0
 21 40  1  0
 22 41  1  0
 22 42  1  0
 24 43  1  0
 24 44  1  0
 25 45  1  0
 25 46  1  0
M  END
>  <Energy>  (16) 
195.3279967376416

>  <compound_id>  (16) 
1367

>  <target_id>  (16) 
1

>  <reference_id>  (16) 
21

>  <inspiration_ids>  (16) 
[2, 21]

>  <energy_score>  (16) 
37.5482492483504

>  <distance_score>  (16) 
3.100915964877234

>  <path>  (16) 
/opt/xchem-fragalysis-2/maxwin/BulkDock/SCRATCH/505732/C1367-P21/C1367-P21.minimised.mol

>  <scratch_subdir>  (16) 
/opt/xchem-fragalysis-2/maxwin/BulkDock/SCRATCH/505732/C1367-P21

>  <fragmenstein_runtime>  (16) 
5.67770791053772

>  <fragmenstein_outcome>  (16) 
too moved

>  <fragmenstein_mode>  (16) 
expansion

>  <fragmenstein_error>  (16) 


$$$$
C1368-P2
     RDKit          3D

 43 45  0  0  0  0  0  0  0  0999 V2000
   -8.7991  -27.4477    8.6467 C   0  0  0  0  0  0  0  0  0  0  0  0
   -9.2629  -27.6390    9.9900 O   0  0  0  0  0  0  0  0  0  0  0  0
   -9.9236  -26.6274   10.6103 C   0  0  0  0  0  0  0  0  0  0  0  0
   -9.7161  -25.3488   10.5102 N   0  0  0  0  0  0  0  0  0  0  0  0
   -8.6667  -24.9037    9.7547 N   0  0  0  0  0  0  0  0  0  0  0  0
   -8.8051  -23.5355    9.4290 C   0  0  0  0  0  0  0  0  0  0  0  0
   -8.6897  -22.5266   10.4003 C   0  0  0  0  0  0  0  0  0  0  0  0
   -8.8620  -21.1756   10.0824 C   0  0  0  0  0  0  0  0  0  0  0  0
   -9.2076  -20.7750    8.7853 C   0  0  0  0  0  0  0  0  0  0  0  0
   -9.2981  -21.7560    7.7988 C   0  0  0  0  0  0  0  0  0  0  0  0
   -9.5131  -21.6396    6.4526 N   0  0  0  0  0  0  0  0  0  0  0  0
   -9.4023  -22.8787    6.0210 C   0  0  0  0  0  0  0  0  0  0  0  0
   -9.4769  -23.2595    4.3490 Cl  0  0  0  0  0  0  0  0  0  0  0  0
   -9.1704  -23.8148    6.9906 O   0  0  0  0  0  0  0  0  0  0  0  0
   -9.0884  -23.0807    8.1409 C   0  0  0  0  0  0  0  0  0  0  0  0
  -11.0346  -27.1366   11.5684 C   0  0  0  0  0  0  0  0  0  0  0  0
  -11.1068  -28.6194   11.8962 C   0  0  0  0  0  0  0  0  0  0  0  0
  -12.2621  -28.9917   11.0417 C   0  0  0  0  0  0  0  0  0  0  0  0
  -12.5150  -27.6526   10.3790 C   0  0  0  0  0  0  0  0  0  0  0  0
  -13.9411  -27.6549    9.8012 C   0  0  0  0  0  0  0  0  0  0  0  0
  -12.4131  -26.4881   11.3420 N   0  0  0  0  0  0  0  0  0  0  0  0
  -13.1205  -26.2304   12.6562 C   0  0  0  0  0  0  0  0  0  0  0  0
  -12.6990  -24.8503   13.1041 C   0  0  0  0  0  0  0  0  0  0  0  0
  -13.8533  -26.9127   13.2721 O   0  0  0  0  0  0  0  0  0  0  0  0
   -7.7574  -27.1169    8.6581 H   0  0  0  0  0  0  0  0  0  0  0  0
   -8.8416  -28.4176    8.1428 H   0  0  0  0  0  0  0  0  0  0  0  0
   -9.4373  -26.7547    8.0901 H   0  0  0  0  0  0  0  0  0  0  0  0
   -7.7794  -24.9961   10.2611 H   0  0  0  0  0  0  0  0  0  0  0  0
   -8.4402  -22.7927   11.4260 H   0  0  0  0  0  0  0  0  0  0  0  0
   -8.7161  -20.4321   10.8628 H   0  0  0  0  0  0  0  0  0  0  0  0
   -9.3451  -19.7367    8.5150 H   0  0  0  0  0  0  0  0  0  0  0  0
  -10.6871  -26.6881   12.5151 H   0  0  0  0  0  0  0  0  0  0  0  0
  -11.3454  -28.7863   12.9528 H   0  0  0  0  0  0  0  0  0  0  0  0
  -10.1972  -29.1787   11.6634 H   0  0  0  0  0  0  0  0  0  0  0  0
  -12.0248  -29.7742   10.3145 H   0  0  0  0  0  0  0  0  0  0  0  0
  -13.1067  -29.3308   11.6520 H   0  0  0  0  0  0  0  0  0  0  0  0
  -11.8775  -27.4856    9.4960 H   0  0  0  0  0  0  0  0  0  0  0  0
  -14.1543  -26.7036    9.3010 H   0  0  0  0  0  0  0  0  0  0  0  0
  -14.0622  -28.4590    9.0676 H   0  0  0  0  0  0  0  0  0  0  0  0
  -14.6947  -27.7900   10.5848 H   0  0  0  0  0  0  0  0  0  0  0  0
  -13.5762  -24.3156   13.4779 H   0  0  0  0  0  0  0  0  0  0  0  0
  -12.2679  -24.2693   12.2847 H   0  0  0  0  0  0  0  0  0  0  0  0
  -11.9535  -24.9505   13.8964 H   0  0  0  0  0  0  0  0  0  0  0  0
  1  2  1  0
  2  3  1  0
  3  4  2  3
  4  5  1  0
  5  6  1  0
  6  7  2  0
  7  8  1  0
  8  9  2  0
  9 10  1  0
 10 11  1  0
 11 12  2  0
 12 13  1  0
 12 14  1  0
 14 15  1  0
  3 16  1  0
 16 17  1  0
 17 18  1  0
 18 19  1  0
 19 20  1  0
 19 21  1  0
 21 22  1  0
 22 23  1  0
 22 24  2  0
 15  6  1  0
 21 16  1  0
 15 10  2  0
  1 25  1  0
  1 26  1  0
  1 27  1  0
  5 28  1  0
  7 29  1  0
  8 30  1  0
  9 31  1  0
 16 32  1  0
 17 33  1  0
 17 34  1  0
 18 35  1  0
 18 36  1  0
 19 37  1  0
 20 38  1  0
 20 39  1  0
 20 40  1  0
 23 41  1  0
 23 42  1  0
 23 43  1  0
M  END
>  <Energy>  (17) 
153.78879463336835

>  <compound_id>  (17) 
1368

>  <target_id>  (17) 
1

>  <reference_id>  (17) 
2

>  <inspiration_ids>  (17) 
[2, 28]

>  <energy_score>  (17) 
15.469198836554696

>  <distance_score>  (17) 
1.6282617184964816

>  <path>  (17) 
/opt/xchem-fragalysis-2/maxwin/BulkDock/SCRATCH/505732/C1368-P2/C1368-P2.minimised.mol

>  <scratch_subdir>  (17) 
/opt/xchem-fragalysis-2/maxwin/BulkDock/SCRATCH/505732/C1368-P2

>  <fragmenstein_runtime>  (17) 
2.703834056854248

>  <fragmenstein_outcome>  (17) 
too moved

>  <fragmenstein_mode>  (17) 
expansion

>  <fragmenstein_error>  (17) 


$$$$
C1368-P28
     RDKit          3D

 43 45  0  0  0  0  0  0  0  0999 V2000
   -8.4847  -26.7535    9.5493 C   0  0  0  0  0  0  0  0  0  0  0  0
   -9.4803  -27.7813    9.6478 O   0  0  0  0  0  0  0  0  0  0  0  0
  -10.7871  -27.4499    9.5198 C   0  0  0  0  0  0  0  0  0  0  0  0
  -11.3234  -26.6646    8.6384 N   0  0  0  0  0  0  0  0  0  0  0  0
  -10.5991  -26.1250    7.6343 N   0  0  0  0  0  0  0  0  0  0  0  0
  -10.9584  -24.8452    7.1886 C   0  0  0  0  0  0  0  0  0  0  0  0
  -12.1029  -24.1867    7.6793 C   0  0  0  0  0  0  0  0  0  0  0  0
  -12.4284  -22.8717    7.3406 C   0  0  0  0  0  0  0  0  0  0  0  0
  -11.6148  -22.1186    6.4921 C   0  0  0  0  0  0  0  0  0  0  0  0
  -10.4792  -22.7400    5.9762 C   0  0  0  0  0  0  0  0  0  0  0  0
   -9.5040  -22.2299    5.1703 N   0  0  0  0  0  0  0  0  0  0  0  0
   -8.6881  -23.2520    5.0278 C   0  0  0  0  0  0  0  0  0  0  0  0
   -7.3176  -23.1345    4.0176 Cl  0  0  0  0  0  0  0  0  0  0  0  0
   -9.0298  -24.3940    5.6938 O   0  0  0  0  0  0  0  0  0  0  0  0
  -10.2020  -24.0627    6.3068 C   0  0  0  0  0  0  0  0  0  0  0  0
  -11.7220  -28.1942   10.5012 C   0  0  0  0  0  0  0  0  0  0  0  0
  -11.0251  -29.1966   11.3967 C   0  0  0  0  0  0  0  0  0  0  0  0
  -12.1906  -29.5500   12.2552 C   0  0  0  0  0  0  0  0  0  0  0  0
  -13.2310  -28.5682   11.7309 C   0  0  0  0  0  0  0  0  0  0  0  0
  -14.2725  -28.3172   12.8343 C   0  0  0  0  0  0  0  0  0  0  0  0
  -12.5995  -27.2401   11.3777 N   0  0  0  0  0  0  0  0  0  0  0  0
  -11.7351  -26.3029   12.2078 C   0  0  0  0  0  0  0  0  0  0  0  0
  -11.5776  -25.0114   11.4420 C   0  0  0  0  0  0  0  0  0  0  0  0
  -11.2925  -26.4341   13.2912 O   0  0  0  0  0  0  0  0  0  0  0  0
   -7.7622  -26.9124   10.3548 H   0  0  0  0  0  0  0  0  0  0  0  0
   -7.9608  -26.8480    8.5949 H   0  0  0  0  0  0  0  0  0  0  0  0
   -8.9048  -25.7523    9.6634 H   0  0  0  0  0  0  0  0  0  0  0  0
   -9.7123  -26.4974    7.3066 H   0  0  0  0  0  0  0  0  0  0  0  0
  -12.7810  -24.7253    8.3385 H   0  0  0  0  0  0  0  0  0  0  0  0
  -13.3714  -22.4879    7.7125 H   0  0  0  0  0  0  0  0  0  0  0  0
  -11.8509  -21.1101    6.1886 H   0  0  0  0  0  0  0  0  0  0  0  0
  -12.3522  -28.7182    9.7535 H   0  0  0  0  0  0  0  0  0  0  0  0
  -10.2124  -28.7528   11.9816 H   0  0  0  0  0  0  0  0  0  0  0  0
  -10.6253  -30.0511   10.8424 H   0  0  0  0  0  0  0  0  0  0  0  0
  -12.5170  -30.5870   12.1273 H   0  0  0  0  0  0  0  0  0  0  0  0
  -11.9493  -29.3968   13.3131 H   0  0  0  0  0  0  0  0  0  0  0  0
  -13.8293  -28.9640   10.8923 H   0  0  0  0  0  0  0  0  0  0  0  0
  -15.0355  -27.6113   12.4881 H   0  0  0  0  0  0  0  0  0  0  0  0
  -14.7734  -29.2498   13.1147 H   0  0  0  0  0  0  0  0  0  0  0  0
  -13.8153  -27.8903   13.7338 H   0  0  0  0  0  0  0  0  0  0  0  0
  -10.5545  -24.9308   11.0746 H   0  0  0  0  0  0  0  0  0  0  0  0
  -12.2862  -24.9395   10.6162 H   0  0  0  0  0  0  0  0  0  0  0  0
  -11.7799  -24.1769   12.1206 H   0  0  0  0  0  0  0  0  0  0  0  0
  1  2  1  0
  2  3  1  0
  3  4  2  3
  4  5  1  0
  5  6  1  0
  6  7  2  0
  7  8  1  0
  8  9  2  0
  9 10  1  0
 10 11  1  0
 11 12  2  0
 12 13  1  0
 12 14  1  0
 14 15  1  0
  3 16  1  0
 16 17  1  0
 17 18  1  0
 18 19  1  0
 19 20  1  0
 19 21  1  0
 21 22  1  0
 22 23  1  0
 22 24  2  0
 15  6  1  0
 21 16  1  0
 15 10  2  0
  1 25  1  0
  1 26  1  0
  1 27  1  0
  5 28  1  0
  7 29  1  0
  8 30  1  0
  9 31  1  0
 16 32  1  0
 17 33  1  0
 17 34  1  0
 18 35  1  0
 18 36  1  0
 19 37  1  0
 20 38  1  0
 20 39  1  0
 20 40  1  0
 23 41  1  0
 23 42  1  0
 23 43  1  0
M  END
>  <Energy>  (18) 
149.64726979273698

>  <compound_id>  (18) 
1368

>  <target_id>  (18) 
1

>  <reference_id>  (18) 
28

>  <inspiration_ids>  (18) 
[2, 28]

>  <energy_score>  (18) 
11.327673995924087

>  <distance_score>  (18) 
3.2084435750661027

>  <path>  (18) 
/opt/xchem-fragalysis-2/maxwin/BulkDock/SCRATCH/505732/C1368-P28/C1368-P28.minimised.mol

>  <scratch_subdir>  (18) 
/opt/xchem-fragalysis-2/maxwin/BulkDock/SCRATCH/505732/C1368-P28

>  <fragmenstein_runtime>  (18) 
3.0186803340911865

>  <fragmenstein_outcome>  (18) 
too moved

>  <fragmenstein_mode>  (18) 
expansion

>  <fragmenstein_error>  (18) 


$$$$
C1369-P2
     RDKit          3D

 41 43  0  0  0  0  0  0  0  0999 V2000
   -8.8985  -28.4721   14.4611 C   0  0  0  0  0  0  0  0  0  0  0  0
  -10.1156  -28.5825   13.7219 O   0  0  0  0  0  0  0  0  0  0  0  0
  -10.7766  -27.3922   13.6171 C   0  0  0  0  0  0  0  0  0  0  0  0
  -10.1676  -26.2938   13.0258 C   0  0  0  0  0  0  0  0  0  0  0  0
  -10.8596  -25.0871   12.8974 C   0  0  0  0  0  0  0  0  0  0  0  0
  -10.1813  -23.8705   12.4143 C   0  0  0  0  0  0  0  0  0  0  0  0
  -10.5939  -22.7403   12.6122 O   0  0  0  0  0  0  0  0  0  0  0  0
   -9.0398  -24.2076   11.7469 O   0  0  0  0  0  0  0  0  0  0  0  0
   -8.3418  -23.0850   11.2804 N   0  0  0  0  0  0  0  0  0  0  0  0
   -8.6958  -22.6088   10.0021 C   0  0  0  0  0  0  0  0  0  0  0  0
   -8.8597  -21.2319    9.7834 C   0  0  0  0  0  0  0  0  0  0  0  0
   -9.2371  -20.7289    8.5294 C   0  0  0  0  0  0  0  0  0  0  0  0
   -9.3541  -21.6362    7.4765 C   0  0  0  0  0  0  0  0  0  0  0  0
   -9.5778  -21.4375    6.1426 N   0  0  0  0  0  0  0  0  0  0  0  0
   -9.4762  -22.6489    5.6334 C   0  0  0  0  0  0  0  0  0  0  0  0
   -9.5542  -22.9371    3.9463 Cl  0  0  0  0  0  0  0  0  0  0  0  0
   -9.2508  -23.6447    6.5417 O   0  0  0  0  0  0  0  0  0  0  0  0
   -9.1553  -22.9822    7.7242 C   0  0  0  0  0  0  0  0  0  0  0  0
   -8.8573  -23.5270    8.9584 C   0  0  0  0  0  0  0  0  0  0  0  0
  -12.1915  -24.9963   13.3027 C   0  0  0  0  0  0  0  0  0  0  0  0
  -12.7985  -26.0971   13.9032 C   0  0  0  0  0  0  0  0  0  0  0  0
  -14.0809  -25.9147   14.3338 O   0  0  0  0  0  0  0  0  0  0  0  0
  -14.2166  -26.1788   15.7304 C   0  0  0  0  0  0  0  0  0  0  0  0
  -12.1017  -27.3072   14.0397 C   0  0  0  0  0  0  0  0  0  0  0  0
  -12.7004  -28.3960   14.6219 O   0  0  0  0  0  0  0  0  0  0  0  0
  -13.3351  -29.1886   13.6178 C   0  0  0  0  0  0  0  0  0  0  0  0
   -8.9879  -27.7794   15.3060 H   0  0  0  0  0  0  0  0  0  0  0  0
   -8.0807  -28.1690   13.8005 H   0  0  0  0  0  0  0  0  0  0  0  0
   -8.6592  -29.4622   14.8606 H   0  0  0  0  0  0  0  0  0  0  0  0
   -9.1443  -26.3852   12.6743 H   0  0  0  0  0  0  0  0  0  0  0  0
   -8.3189  -22.3323   11.9713 H   0  0  0  0  0  0  0  0  0  0  0  0
   -8.6897  -20.5370   10.6035 H   0  0  0  0  0  0  0  0  0  0  0  0
   -9.3608  -19.6691    8.3479 H   0  0  0  0  0  0  0  0  0  0  0  0
   -8.6965  -24.5884    9.0929 H   0  0  0  0  0  0  0  0  0  0  0  0
  -12.7371  -24.0610   13.2060 H   0  0  0  0  0  0  0  0  0  0  0  0
  -14.6162  -27.1865   15.8788 H   0  0  0  0  0  0  0  0  0  0  0  0
  -13.2842  -26.0551   16.2938 H   0  0  0  0  0  0  0  0  0  0  0  0
  -14.9462  -25.4693   16.1336 H   0  0  0  0  0  0  0  0  0  0  0  0
  -14.1210  -28.6238   13.1042 H   0  0  0  0  0  0  0  0  0  0  0  0
  -13.8041  -30.0431   14.1147 H   0  0  0  0  0  0  0  0  0  0  0  0
  -12.6095  -29.5754   12.8941 H   0  0  0  0  0  0  0  0  0  0  0  0
  1  2  1  0
  2  3  1  0
  3  4  2  0
  4  5  1  0
  5  6  1  0
  6  7  2  0
  6  8  1  0
  8  9  1  0
  9 10  1  0
 10 11  2  0
 11 12  1  0
 12 13  2  0
 13 14  1  0
 14 15  2  0
 15 16  1  0
 15 17  1  0
 17 18  1  0
 18 19  2  0
  5 20  2  0
 20 21  1  0
 21 22  1  0
 22 23  1  0
 21 24  2  0
 24 25  1  0
 25 26  1  0
 24  3  1  0
 19 10  1  0
 18 13  1  0
  1 27  1  0
  1 28  1  0
  1 29  1  0
  4 30  1  0
  9 31  1  0
 11 32  1  0
 12 33  1  0
 19 34  1  0
 20 35  1  0
 23 36  1  0
 23 37  1  0
 23 38  1  0
 26 39  1  0
 26 40  1  0
 26 41  1  0
M  END
>  <Energy>  (19) 
102.20446842246122

>  <compound_id>  (19) 
1369

>  <target_id>  (19) 
1

>  <reference_id>  (19) 
2

>  <inspiration_ids>  (19) 
[2, 30]

>  <energy_score>  (19) 
-48.83977805978395

>  <distance_score>  (19) 
1.2281974308912986

>  <path>  (19) 
/opt/xchem-fragalysis-2/maxwin/BulkDock/SCRATCH/505732/C1369-P2/C1369-P2.minimised.mol

>  <scratch_subdir>  (19) 
/opt/xchem-fragalysis-2/maxwin/BulkDock/SCRATCH/505732/C1369-P2

>  <fragmenstein_runtime>  (19) 
3.1832542419433594

>  <fragmenstein_outcome>  (19) 
too moved

>  <fragmenstein_mode>  (19) 
expansion

>  <fragmenstein_error>  (19) 


$$$$
C1369-P30
     RDKit          3D

 41 43  0  0  0  0  0  0  0  0999 V2000
   -8.5881  -28.4129   13.2596 C   0  0  0  0  0  0  0  0  0  0  0  0
   -9.7924  -28.3019   14.0076 O   0  0  0  0  0  0  0  0  0  0  0  0
  -10.7626  -27.4592   13.5430 C   0  0  0  0  0  0  0  0  0  0  0  0
  -10.7243  -26.8389   12.2989 C   0  0  0  0  0  0  0  0  0  0  0  0
  -11.7746  -26.0114   11.9188 C   0  0  0  0  0  0  0  0  0  0  0  0
  -11.6971  -25.2626   10.6785 C   0  0  0  0  0  0  0  0  0  0  0  0
  -11.2604  -24.1250   10.6784 O   0  0  0  0  0  0  0  0  0  0  0  0
  -12.2425  -25.9672    9.6473 O   0  0  0  0  0  0  0  0  0  0  0  0
  -12.8159  -25.1314    8.6603 N   0  0  0  0  0  0  0  0  0  0  0  0
  -11.9888  -24.3821    7.7765 C   0  0  0  0  0  0  0  0  0  0  0  0
  -12.3855  -23.0626    7.4580 C   0  0  0  0  0  0  0  0  0  0  0  0
  -11.6408  -22.2384    6.6027 C   0  0  0  0  0  0  0  0  0  0  0  0
  -10.4830  -22.7771    6.0518 C   0  0  0  0  0  0  0  0  0  0  0  0
   -9.5502  -22.2019    5.2389 N   0  0  0  0  0  0  0  0  0  0  0  0
   -8.7056  -23.1892    5.0294 C   0  0  0  0  0  0  0  0  0  0  0  0
   -7.3849  -22.9978    3.9651 Cl  0  0  0  0  0  0  0  0  0  0  0  0
   -8.9838  -24.3614    5.6709 O   0  0  0  0  0  0  0  0  0  0  0  0
  -10.1406  -24.0924    6.3341 C   0  0  0  0  0  0  0  0  0  0  0  0
  -10.8536  -24.9466    7.1753 C   0  0  0  0  0  0  0  0  0  0  0  0
  -12.8428  -25.7389   12.7680 C   0  0  0  0  0  0  0  0  0  0  0  0
  -12.8924  -26.3520   14.0139 C   0  0  0  0  0  0  0  0  0  0  0  0
  -14.0048  -26.0227   14.7295 O   0  0  0  0  0  0  0  0  0  0  0  0
  -13.8816  -26.0485   16.1445 C   0  0  0  0  0  0  0  0  0  0  0  0
  -11.8696  -27.2441   14.3885 C   0  0  0  0  0  0  0  0  0  0  0  0
  -11.9278  -27.9096   15.5903 O   0  0  0  0  0  0  0  0  0  0  0  0
  -12.5038  -29.2031   15.4005 C   0  0  0  0  0  0  0  0  0  0  0  0
   -8.7697  -28.9165   12.3047 H   0  0  0  0  0  0  0  0  0  0  0  0
   -7.8921  -29.0299   13.8360 H   0  0  0  0  0  0  0  0  0  0  0  0
   -8.1205  -27.4361   13.1059 H   0  0  0  0  0  0  0  0  0  0  0  0
   -9.8928  -26.9724   11.6144 H   0  0  0  0  0  0  0  0  0  0  0  0
  -13.5137  -24.5213    9.0847 H   0  0  0  0  0  0  0  0  0  0  0  0
  -13.3103  -22.6831    7.8784 H   0  0  0  0  0  0  0  0  0  0  0  0
  -11.9386  -21.2344    6.3459 H   0  0  0  0  0  0  0  0  0  0  0  0
  -10.5253  -25.9564    7.3733 H   0  0  0  0  0  0  0  0  0  0  0  0
  -13.6246  -25.0431   12.4744 H   0  0  0  0  0  0  0  0  0  0  0  0
  -12.8897  -25.7499   16.4949 H   0  0  0  0  0  0  0  0  0  0  0  0
  -14.6021  -25.3330   16.5537 H   0  0  0  0  0  0  0  0  0  0  0  0
  -14.1493  -27.0372   16.5283 H   0  0  0  0  0  0  0  0  0  0  0  0
  -12.6554  -29.6484   16.3883 H   0  0  0  0  0  0  0  0  0  0  0  0
  -11.8323  -29.8574   14.8348 H   0  0  0  0  0  0  0  0  0  0  0  0
  -13.4799  -29.1413   14.9061 H   0  0  0  0  0  0  0  0  0  0  0  0
  1  2  1  0
  2  3  1  0
  3  4  2  0
  4  5  1  0
  5  6  1  0
  6  7  2  0
  6  8  1  0
  8  9  1  0
  9 10  1  0
 10 11  2  0
 11 12  1  0
 12 13  2  0
 13 14  1  0
 14 15  2  0
 15 16  1  0
 15 17  1  0
 17 18  1  0
 18 19  2  0
  5 20  2  0
 20 21  1  0
 21 22  1  0
 22 23  1  0
 21 24  2  0
 24 25  1  0
 25 26  1  0
 24  3  1  0
 19 10  1  0
 18 13  1  0
  1 27  1  0
  1 28  1  0
  1 29  1  0
  4 30  1  0
  9 31  1  0
 11 32  1  0
 12 33  1  0
 19 34  1  0
 20 35  1  0
 23 36  1  0
 23 37  1  0
 23 38  1  0
 26 39  1  0
 26 40  1  0
 26 41  1  0
M  END
>  <Energy>  (20) 
111.67742624234904

>  <compound_id>  (20) 
1369

>  <target_id>  (20) 
1

>  <reference_id>  (20) 
30

>  <inspiration_ids>  (20) 
[2, 30]

>  <energy_score>  (20) 
-39.36682023989627

>  <distance_score>  (20) 
2.935776458693059

>  <path>  (20) 
/opt/xchem-fragalysis-2/maxwin/BulkDock/SCRATCH/505732/C1369-P30/C1369-P30.minimised.mol

>  <scratch_subdir>  (20) 
/opt/xchem-fragalysis-2/maxwin/BulkDock/SCRATCH/505732/C1369-P30

>  <fragmenstein_runtime>  (20) 
2.8719820976257324

>  <fragmenstein_outcome>  (20) 
too moved

>  <fragmenstein_mode>  (20) 
expansion

>  <fragmenstein_error>  (20) 


$$$$
C1370-P2
     RDKit          3D

 51 54  0  0  0  0  0  0  0  0999 V2000
  -16.4390  -23.5234   13.6686 C   0  0  0  0  0  0  0  0  0  0  0  0
  -15.4803  -24.2738   14.4204 O   0  0  0  0  0  0  0  0  0  0  0  0
  -14.4569  -24.8695   13.7363 C   0  0  0  0  0  0  0  0  0  0  0  0
  -13.9345  -24.2958   12.7143 N   0  0  0  0  0  0  0  0  0  0  0  0
  -12.9581  -24.6517   11.6900 C   0  0  0  0  0  0  0  0  0  0  0  0
  -11.6268  -24.0278   11.7961 N   0  0  0  0  0  0  0  0  0  0  0  0
  -10.8351  -23.5844   10.7221 C   0  0  0  0  0  0  0  0  0  0  0  0
   -9.7744  -22.6726   10.9498 C   0  0  0  0  0  0  0  0  0  0  0  0
   -9.0630  -22.0311    9.9019 C   0  0  0  0  0  0  0  0  0  0  0  0
   -9.3843  -22.3840    8.5887 C   0  0  0  0  0  0  0  0  0  0  0  0
   -8.9582  -21.9180    7.3687 N   0  0  0  0  0  0  0  0  0  0  0  0
   -9.5328  -22.7262    6.5030 C   0  0  0  0  0  0  0  0  0  0  0  0
   -9.2231  -22.6298    4.8143 Cl  0  0  0  0  0  0  0  0  0  0  0  0
  -10.3687  -23.6544    7.0582 O   0  0  0  0  0  0  0  0  0  0  0  0
  -10.2944  -23.4057    8.3978 C   0  0  0  0  0  0  0  0  0  0  0  0
  -11.0176  -24.0389    9.4108 C   0  0  0  0  0  0  0  0  0  0  0  0
  -14.1567  -26.2773   14.3697 C   0  0  0  0  0  0  0  0  0  0  0  0
  -12.7722  -26.7586   13.9795 C   0  0  0  0  0  0  0  0  0  0  0  0
  -11.6593  -26.1575   14.5764 C   0  0  0  0  0  0  0  0  0  0  0  0
  -10.4460  -26.1150   13.9140 C   0  0  0  0  0  0  0  0  0  0  0  0
  -10.3069  -26.7202   12.6729 C   0  0  0  0  0  0  0  0  0  0  0  0
   -9.1119  -26.4350   11.8227 C   0  0  0  0  0  0  0  0  0  0  0  0
  -11.3237  -27.5573   12.2207 C   0  0  0  0  0  0  0  0  0  0  0  0
  -12.5536  -27.5888   12.8785 C   0  0  0  0  0  0  0  0  0  0  0  0
  -14.2785  -26.2319   15.9297 C   0  0  0  0  0  0  0  0  0  0  0  0
  -15.6654  -26.7508   16.2630 C   0  0  0  0  0  0  0  0  0  0  0  0
  -15.8664  -27.7808   15.2583 N   0  0  0  0  0  0  0  0  0  0  0  0
  -15.3619  -27.1876   14.0114 C   0  0  0  0  0  0  0  0  0  0  0  0
  -16.3768  -22.4737   13.9568 H   0  0  0  0  0  0  0  0  0  0  0  0
  -17.4332  -23.8891   13.9415 H   0  0  0  0  0  0  0  0  0  0  0  0
  -16.3224  -23.6371   12.5869 H   0  0  0  0  0  0  0  0  0  0  0  0
  -12.8923  -25.7145   11.5101 H   0  0  0  0  0  0  0  0  0  0  0  0
  -13.4166  -24.3191   10.7500 H   0  0  0  0  0  0  0  0  0  0  0  0
  -11.5559  -23.4519   12.6306 H   0  0  0  0  0  0  0  0  0  0  0  0
   -9.5389  -22.3817   11.9733 H   0  0  0  0  0  0  0  0  0  0  0  0
   -8.3013  -21.2867   10.1192 H   0  0  0  0  0  0  0  0  0  0  0  0
  -11.7373  -24.8086    9.1638 H   0  0  0  0  0  0  0  0  0  0  0  0
  -11.7394  -25.6040   15.5015 H   0  0  0  0  0  0  0  0  0  0  0  0
   -9.6594  -25.5017   14.3264 H   0  0  0  0  0  0  0  0  0  0  0  0
   -8.3078  -27.1372   12.0633 H   0  0  0  0  0  0  0  0  0  0  0  0
   -8.7476  -25.4152   11.9735 H   0  0  0  0  0  0  0  0  0  0  0  0
   -9.3525  -26.5380   10.7592 H   0  0  0  0  0  0  0  0  0  0  0  0
  -11.2043  -28.1055   11.2890 H   0  0  0  0  0  0  0  0  0  0  0  0
  -13.3483  -28.1505   12.4004 H   0  0  0  0  0  0  0  0  0  0  0  0
  -14.1348  -25.2348   16.3541 H   0  0  0  0  0  0  0  0  0  0  0  0
  -13.5483  -26.8999   16.4075 H   0  0  0  0  0  0  0  0  0  0  0  0
  -16.4230  -25.9642   16.1760 H   0  0  0  0  0  0  0  0  0  0  0  0
  -15.7131  -27.1611   17.2760 H   0  0  0  0  0  0  0  0  0  0  0  0
  -16.8514  -28.0250   15.1720 H   0  0  0  0  0  0  0  0  0  0  0  0
  -15.1361  -28.0012   13.3219 H   0  0  0  0  0  0  0  0  0  0  0  0
  -16.1764  -26.6177   13.5463 H   0  0  0  0  0  0  0  0  0  0  0  0
  1  2  1  0
  2  3  1  0
  3  4  2  3
  4  5  1  0
  5  6  1  0
  6  7  1  0
  7  8  2  0
  8  9  1  0
  9 10  2  0
 10 11  1  0
 11 12  2  0
 12 13  1  0
 12 14  1  0
 14 15  1  0
 15 16  2  0
  3 17  1  0
 17 18  1  0
 18 19  2  0
 19 20  1  0
 20 21  2  0
 21 22  1  0
 21 23  1  0
 23 24  2  0
 17 25  1  0
 25 26  1  0
 26 27  1  0
 27 28  1  0
 16  7  1  0
 28 17  1  0
 15 10  1  0
 24 18  1  0
  1 29  1  0
  1 30  1  0
  1 31  1  0
  5 32  1  0
  5 33  1  0
  6 34  1  0
  8 35  1  0
  9 36  1  0
 16 37  1  0
 19 38  1  0
 20 39  1  0
 22 40  1  0
 22 41  1  0
 22 42  1  0
 23 43  1  0
 24 44  1  0
 25 45  1  0
 25 46  1  0
 26 47  1  0
 26 48  1  0
 27 49  1  0
 28 50  1  0
 28 51  1  0
M  END
>  <Energy>  (21) 
63.992698374346119

>  <compound_id>  (21) 
1370

>  <target_id>  (21) 
1

>  <reference_id>  (21) 
2

>  <inspiration_ids>  (21) 
[2, 77]

>  <energy_score>  (21) 
-36.54365332152665

>  <distance_score>  (21) 
2.083307581622101

>  <path>  (21) 
/opt/xchem-fragalysis-2/maxwin/BulkDock/SCRATCH/505732/C1370-P2/C1370-P2.minimised.mol

>  <scratch_subdir>  (21) 
/opt/xchem-fragalysis-2/maxwin/BulkDock/SCRATCH/505732/C1370-P2

>  <fragmenstein_runtime>  (21) 
6.469627857208252

>  <fragmenstein_outcome>  (21) 
too moved

>  <fragmenstein_mode>  (21) 
expansion

>  <fragmenstein_error>  (21) 


$$$$
C1370-P77
     RDKit          3D

 51 54  0  0  0  0  0  0  0  0999 V2000
  -17.0894  -22.7823   11.1087 C   0  0  0  0  0  0  0  0  0  0  0  0
  -16.3841  -23.5079   12.1263 O   0  0  0  0  0  0  0  0  0  0  0  0
  -15.6274  -24.5709   11.7270 C   0  0  0  0  0  0  0  0  0  0  0  0
  -15.4136  -24.7427   10.4723 N   0  0  0  0  0  0  0  0  0  0  0  0
  -14.7223  -25.8703    9.8864 C   0  0  0  0  0  0  0  0  0  0  0  0
  -13.3099  -25.7191    9.5893 N   0  0  0  0  0  0  0  0  0  0  0  0
  -12.8640  -24.9973    8.4773 C   0  0  0  0  0  0  0  0  0  0  0  0
  -13.5049  -23.8462    7.9927 C   0  0  0  0  0  0  0  0  0  0  0  0
  -12.9859  -23.0969    6.9184 C   0  0  0  0  0  0  0  0  0  0  0  0
  -11.7696  -23.4950    6.3565 C   0  0  0  0  0  0  0  0  0  0  0  0
  -11.0113  -22.9426    5.3577 N   0  0  0  0  0  0  0  0  0  0  0  0
   -9.9565  -23.7345    5.3112 C   0  0  0  0  0  0  0  0  0  0  0  0
   -8.6437  -23.4243    4.2431 Cl  0  0  0  0  0  0  0  0  0  0  0  0
   -9.9981  -24.8152    6.1503 O   0  0  0  0  0  0  0  0  0  0  0  0
  -11.1567  -24.6336    6.8472 C   0  0  0  0  0  0  0  0  0  0  0  0
  -11.6449  -25.4006    7.9011 C   0  0  0  0  0  0  0  0  0  0  0  0
  -15.1521  -25.4092   12.9449 C   0  0  0  0  0  0  0  0  0  0  0  0
  -13.6273  -25.5942   12.9073 C   0  0  0  0  0  0  0  0  0  0  0  0
  -12.8095  -24.4501   12.8854 C   0  0  0  0  0  0  0  0  0  0  0  0
  -11.4271  -24.5396   12.7222 C   0  0  0  0  0  0  0  0  0  0  0  0
  -10.8238  -25.7852   12.5756 C   0  0  0  0  0  0  0  0  0  0  0  0
   -9.3608  -25.9024   12.2828 C   0  0  0  0  0  0  0  0  0  0  0  0
  -11.6149  -26.9343   12.6551 C   0  0  0  0  0  0  0  0  0  0  0  0
  -12.9986  -26.8425   12.8305 C   0  0  0  0  0  0  0  0  0  0  0  0
  -15.5326  -24.8005   14.3180 C   0  0  0  0  0  0  0  0  0  0  0  0
  -15.5835  -26.0000   15.2490 C   0  0  0  0  0  0  0  0  0  0  0  0
  -16.0842  -27.1139   14.4375 N   0  0  0  0  0  0  0  0  0  0  0  0
  -16.0149  -26.6857   13.0274 C   0  0  0  0  0  0  0  0  0  0  0  0
  -17.8188  -23.4351   10.6196 H   0  0  0  0  0  0  0  0  0  0  0  0
  -17.6265  -21.9627   11.5937 H   0  0  0  0  0  0  0  0  0  0  0  0
  -16.3966  -22.3567   10.3768 H   0  0  0  0  0  0  0  0  0  0  0  0
  -14.8332  -26.7634   10.5056 H   0  0  0  0  0  0  0  0  0  0  0  0
  -15.2486  -26.1358    8.9602 H   0  0  0  0  0  0  0  0  0  0  0  0
  -12.7987  -25.4171   10.4156 H   0  0  0  0  0  0  0  0  0  0  0  0
  -14.4361  -23.5111    8.4431 H   0  0  0  0  0  0  0  0  0  0  0  0
  -13.5089  -22.2328    6.5277 H   0  0  0  0  0  0  0  0  0  0  0  0
  -11.1013  -26.2651    8.2611 H   0  0  0  0  0  0  0  0  0  0  0  0
  -13.2565  -23.4608   12.9544 H   0  0  0  0  0  0  0  0  0  0  0  0
  -10.8358  -23.6264   12.6829 H   0  0  0  0  0  0  0  0  0  0  0  0
   -8.8866  -26.5886   12.9911 H   0  0  0  0  0  0  0  0  0  0  0  0
   -8.8591  -24.9337   12.3585 H   0  0  0  0  0  0  0  0  0  0  0  0
   -9.2118  -26.2782   11.2653 H   0  0  0  0  0  0  0  0  0  0  0  0
  -11.1567  -27.9163   12.5510 H   0  0  0  0  0  0  0  0  0  0  0  0
  -13.5607  -27.7709   12.8580 H   0  0  0  0  0  0  0  0  0  0  0  0
  -16.5306  -24.3438   14.2992 H   0  0  0  0  0  0  0  0  0  0  0  0
  -14.8383  -24.0381   14.6844 H   0  0  0  0  0  0  0  0  0  0  0  0
  -16.2331  -25.8181   16.1104 H   0  0  0  0  0  0  0  0  0  0  0  0
  -14.5817  -26.2348   15.6271 H   0  0  0  0  0  0  0  0  0  0  0  0
  -15.4875  -27.9272   14.5887 H   0  0  0  0  0  0  0  0  0  0  0  0
  -15.6701  -27.5081   12.3951 H   0  0  0  0  0  0  0  0  0  0  0  0
  -17.0422  -26.4704   12.7045 H   0  0  0  0  0  0  0  0  0  0  0  0
  1  2  1  0
  2  3  1  0
  3  4  2  3
  4  5  1  0
  5  6  1  0
  6  7  1  0
  7  8  2  0
  8  9  1  0
  9 10  2  0
 10 11  1  0
 11 12  2  0
 12 13  1  0
 12 14  1  0
 14 15  1  0
 15 16  2  0
  3 17  1  0
 17 18  1  0
 18 19  2  0
 19 20  1  0
 20 21  2  0
 21 22  1  0
 21 23  1  0
 23 24  2  0
 17 25  1  0
 25 26  1  0
 26 27  1  0
 27 28  1  0
 16  7  1  0
 28 17  1  0
 15 10  1  0
 24 18  1  0
  1 29  1  0
  1 30  1  0
  1 31  1  0
  5 32  1  0
  5 33  1  0
  6 34  1  0
  8 35  1  0
  9 36  1  0
 16 37  1  0
 19 38  1  0
 20 39  1  0
 22 40  1  0
 22 41  1  0
 22 42  1  0
 23 43  1  0
 24 44  1  0
 25 45  1  0
 25 46  1  0
 26 47  1  0
 26 48  1  0
 27 49  1  0
 28 50  1  0
 28 51  1  0
M  END
>  <Energy>  (22) 
36.659346839970368

>  <compound_id>  (22) 
1370

>  <target_id>  (22) 
1

>  <reference_id>  (22) 
77

>  <inspiration_ids>  (22) 
[2, 77]

>  <energy_score>  (22) 
-57.32825205462092

>  <distance_score>  (22) 
3.289260601258793

>  <path>  (22) 
/opt/xchem-fragalysis-2/maxwin/BulkDock/SCRATCH/505732/C1370-P77/C1370-P77.minimised.mol

>  <scratch_subdir>  (22) 
/opt/xchem-fragalysis-2/maxwin/BulkDock/SCRATCH/505732/C1370-P77

>  <fragmenstein_runtime>  (22) 
7.384864568710327

>  <fragmenstein_outcome>  (22) 
too moved

>  <fragmenstein_mode>  (22) 
expansion

>  <fragmenstein_error>  (22) 


$$$$
C1371-P2
     RDKit          3D

 40 43  0  0  0  0  0  0  0  0999 V2000
  -10.6451  -24.2309   13.7985 O   0  0  0  0  0  0  0  0  0  0  0  0
  -10.1725  -25.0239   12.9951 C   0  0  0  0  0  0  0  0  0  0  0  0
   -9.5190  -24.6885   11.8345 O   0  0  0  0  0  0  0  0  0  0  0  0
   -9.4559  -23.3054   11.6075 N   0  0  0  0  0  0  0  0  0  0  0  0
   -9.2378  -22.8267   10.3001 C   0  0  0  0  0  0  0  0  0  0  0  0
   -9.0281  -21.4534   10.0858 C   0  0  0  0  0  0  0  0  0  0  0  0
   -9.0627  -20.8940    8.7971 C   0  0  0  0  0  0  0  0  0  0  0  0
   -9.2318  -21.7471    7.7087 C   0  0  0  0  0  0  0  0  0  0  0  0
   -9.2392  -21.5022    6.3626 N   0  0  0  0  0  0  0  0  0  0  0  0
   -9.3512  -22.7051    5.8356 C   0  0  0  0  0  0  0  0  0  0  0  0
   -9.3237  -22.9594    4.1400 Cl  0  0  0  0  0  0  0  0  0  0  0  0
   -9.4468  -23.7273    6.7405 O   0  0  0  0  0  0  0  0  0  0  0  0
   -9.3648  -23.0996    7.9447 C   0  0  0  0  0  0  0  0  0  0  0  0
   -9.4038  -23.6815    9.2013 C   0  0  0  0  0  0  0  0  0  0  0  0
  -10.1337  -26.4486   13.1853 C   0  0  0  0  0  0  0  0  0  0  0  0
   -9.9368  -27.1185   14.3816 C   0  0  0  0  0  0  0  0  0  0  0  0
   -9.8443  -28.4718   14.0390 C   0  0  0  0  0  0  0  0  0  0  0  0
  -10.0364  -28.6716   12.7371 N   0  0  0  0  0  0  0  0  0  0  0  0
  -10.2796  -27.4375   12.2426 N   0  0  0  0  0  0  0  0  0  0  0  0
  -10.6954  -27.3270   10.8470 C   0  0  0  0  0  0  0  0  0  0  0  0
   -9.6037  -27.8132    9.8909 C   0  0  0  0  0  0  0  0  0  0  0  0
  -10.0448  -27.6744    8.4366 C   0  0  0  0  0  0  0  0  0  0  0  0
  -11.4607  -27.5450    8.3022 O   0  0  0  0  0  0  0  0  0  0  0  0
  -12.1617  -28.4682    9.1287 C   0  0  0  0  0  0  0  0  0  0  0  0
  -12.0263  -28.0541   10.5871 C   0  0  0  0  0  0  0  0  0  0  0  0
   -8.9403  -22.7935   12.3259 H   0  0  0  0  0  0  0  0  0  0  0  0
   -8.8672  -20.7883   10.9332 H   0  0  0  0  0  0  0  0  0  0  0  0
   -8.9174  -19.8390    8.6220 H   0  0  0  0  0  0  0  0  0  0  0  0
   -9.5660  -24.7423    9.3124 H   0  0  0  0  0  0  0  0  0  0  0  0
   -9.8077  -26.6707   15.3568 H   0  0  0  0  0  0  0  0  0  0  0  0
   -9.6467  -29.3224   14.6789 H   0  0  0  0  0  0  0  0  0  0  0  0
  -10.8754  -26.2657   10.6494 H   0  0  0  0  0  0  0  0  0  0  0  0
   -9.3820  -28.8710   10.0867 H   0  0  0  0  0  0  0  0  0  0  0  0
   -8.6591  -27.2795   10.0508 H   0  0  0  0  0  0  0  0  0  0  0  0
   -9.7034  -28.5311    7.8445 H   0  0  0  0  0  0  0  0  0  0  0  0
   -9.5982  -26.7808    7.9895 H   0  0  0  0  0  0  0  0  0  0  0  0
  -13.2158  -28.4683    8.8334 H   0  0  0  0  0  0  0  0  0  0  0  0
  -11.7755  -29.4811    8.9619 H   0  0  0  0  0  0  0  0  0  0  0  0
  -12.1668  -28.9373   11.2210 H   0  0  0  0  0  0  0  0  0  0  0  0
  -12.8437  -27.3696   10.8495 H   0  0  0  0  0  0  0  0  0  0  0  0
  1  2  2  0
  2  3  1  0
  3  4  1  0
  4  5  1  0
  5  6  2  0
  6  7  1  0
  7  8  2  0
  8  9  1  0
  9 10  2  0
 10 11  1  0
 10 12  1  0
 12 13  1  0
 13 14  2  0
  2 15  1  0
 15 16  2  0
 16 17  1  0
 17 18  2  0
 18 19  1  0
 19 20  1  0
 20 21  1  0
 21 22  1  0
 22 23  1  0
 23 24  1  0
 24 25  1  0
 14  5  1  0
 19 15  1  0
 25 20  1  0
 13  8  1  0
  4 26  1  0
  6 27  1  0
  7 28  1  0
 14 29  1  0
 16 30  1  0
 17 31  1  0
 20 32  1  0
 21 33  1  0
 21 34  1  0
 22 35  1  0
 22 36  1  0
 24 37  1  0
 24 38  1  0
 25 39  1  0
 25 40  1  0
M  END
>  <Energy>  (23) 
41.528556475822171

>  <compound_id>  (23) 
1371

>  <target_id>  (23) 
1

>  <reference_id>  (23) 
2

>  <inspiration_ids>  (23) 
[2, 87]

>  <energy_score>  (23) 
-63.28280110469073

>  <distance_score>  (23) 
1.1002922465161988

>  <path>  (23) 
/opt/xchem-fragalysis-2/maxwin/BulkDock/SCRATCH/505732/C1371-P2/C1371-P2.minimised.mol

>  <scratch_subdir>  (23) 
/opt/xchem-fragalysis-2/maxwin/BulkDock/SCRATCH/505732/C1371-P2

>  <fragmenstein_runtime>  (23) 
7.0595691204071045

>  <fragmenstein_outcome>  (23) 
too moved

>  <fragmenstein_mode>  (23) 
expansion

>  <fragmenstein_error>  (23) 


$$$$
C1371-P87
     RDKit          3D

 40 43  0  0  0  0  0  0  0  0999 V2000
  -12.9275  -24.7623   12.4708 O   0  0  0  0  0  0  0  0  0  0  0  0
  -12.2940  -25.5811   11.8146 C   0  0  0  0  0  0  0  0  0  0  0  0
  -12.5918  -25.8205   10.4817 O   0  0  0  0  0  0  0  0  0  0  0  0
  -11.4756  -25.9244    9.6367 N   0  0  0  0  0  0  0  0  0  0  0  0
  -11.3850  -25.1253    8.4686 C   0  0  0  0  0  0  0  0  0  0  0  0
  -12.2198  -24.0015    8.2693 C   0  0  0  0  0  0  0  0  0  0  0  0
  -11.9851  -23.0690    7.2346 C   0  0  0  0  0  0  0  0  0  0  0  0
  -10.8504  -23.2412    6.4359 C   0  0  0  0  0  0  0  0  0  0  0  0
  -10.3062  -22.4489    5.4621 N   0  0  0  0  0  0  0  0  0  0  0  0
   -9.2304  -23.1195    5.1056 C   0  0  0  0  0  0  0  0  0  0  0  0
   -8.1873  -22.5446    3.8777 Cl  0  0  0  0  0  0  0  0  0  0  0  0
   -9.0204  -24.2971    5.7649 O   0  0  0  0  0  0  0  0  0  0  0  0
  -10.0684  -24.3701    6.6287 C   0  0  0  0  0  0  0  0  0  0  0  0
  -10.2945  -25.3480    7.5993 C   0  0  0  0  0  0  0  0  0  0  0  0
  -11.2629  -26.4337   12.3672 C   0  0  0  0  0  0  0  0  0  0  0  0
  -10.2274  -26.0849   13.2232 C   0  0  0  0  0  0  0  0  0  0  0  0
   -9.5303  -27.2755   13.4814 C   0  0  0  0  0  0  0  0  0  0  0  0
  -10.0931  -28.3203   12.8752 N   0  0  0  0  0  0  0  0  0  0  0  0
  -11.1823  -27.8034   12.2641 N   0  0  0  0  0  0  0  0  0  0  0  0
  -12.1883  -28.7321   11.7406 C   0  0  0  0  0  0  0  0  0  0  0  0
  -11.6395  -29.5726   10.5777 C   0  0  0  0  0  0  0  0  0  0  0  0
  -12.4636  -30.8397   10.4163 C   0  0  0  0  0  0  0  0  0  0  0  0
  -12.4679  -31.6675   11.5768 O   0  0  0  0  0  0  0  0  0  0  0  0
  -12.1746  -31.0073   12.8076 C   0  0  0  0  0  0  0  0  0  0  0  0
  -12.7768  -29.6128   12.8575 C   0  0  0  0  0  0  0  0  0  0  0  0
  -11.1425  -26.8732    9.4864 H   0  0  0  0  0  0  0  0  0  0  0  0
  -13.0588  -23.8275    8.9387 H   0  0  0  0  0  0  0  0  0  0  0  0
  -12.6315  -22.2221    7.0713 H   0  0  0  0  0  0  0  0  0  0  0  0
   -9.5877  -26.1551    7.7399 H   0  0  0  0  0  0  0  0  0  0  0  0
  -10.0017  -25.0920   13.5910 H   0  0  0  0  0  0  0  0  0  0  0  0
   -8.6433  -27.4226   14.0871 H   0  0  0  0  0  0  0  0  0  0  0  0
  -13.0120  -28.1169   11.3628 H   0  0  0  0  0  0  0  0  0  0  0  0
  -10.5940  -29.8522   10.7571 H   0  0  0  0  0  0  0  0  0  0  0  0
  -11.6556  -28.9935    9.6486 H   0  0  0  0  0  0  0  0  0  0  0  0
  -12.0793  -31.4387    9.5844 H   0  0  0  0  0  0  0  0  0  0  0  0
  -13.5040  -30.5905   10.1774 H   0  0  0  0  0  0  0  0  0  0  0  0
  -12.5867  -31.6232   13.6134 H   0  0  0  0  0  0  0  0  0  0  0  0
  -11.0880  -30.9857   12.9444 H   0  0  0  0  0  0  0  0  0  0  0  0
  -12.6404  -29.1668   13.8492 H   0  0  0  0  0  0  0  0  0  0  0  0
  -13.8586  -29.7000   12.6913 H   0  0  0  0  0  0  0  0  0  0  0  0
  1  2  2  0
  2  3  1  0
  3  4  1  0
  4  5  1  0
  5  6  2  0
  6  7  1  0
  7  8  2  0
  8  9  1  0
  9 10  2  0
 10 11  1  0
 10 12  1  0
 12 13  1  0
 13 14  2  0
  2 15  1  0
 15 16  2  0
 16 17  1  0
 17 18  2  0
 18 19  1  0
 19 20  1  0
 20 21  1  0
 21 22  1  0
 22 23  1  0
 23 24  1  0
 24 25  1  0
 14  5  1  0
 19 15  1  0
 25 20  1  0
 13  8  1  0
  4 26  1  0
  6 27  1  0
  7 28  1  0
 14 29  1  0
 16 30  1  0
 17 31  1  0
 20 32  1  0
 21 33  1  0
 21 34  1  0
 22 35  1  0
 22 36  1  0
 24 37  1  0
 24 38  1  0
 25 39  1  0
 25 40  1  0
M  END
>  <Energy>  (24) 
54.307059425278581

>  <compound_id>  (24) 
1371

>  <target_id>  (24) 
1

>  <reference_id>  (24) 
87

>  <inspiration_ids>  (24) 
[2, 87]

>  <energy_score>  (24) 
-50.50429815523434

>  <distance_score>  (24) 
3.0627662885764577

>  <path>  (24) 
/opt/xchem-fragalysis-2/maxwin/BulkDock/SCRATCH/505732/C1371-P87/C1371-P87.minimised.mol

>  <scratch_subdir>  (24) 
/opt/xchem-fragalysis-2/maxwin/BulkDock/SCRATCH/505732/C1371-P87

>  <fragmenstein_runtime>  (24) 
7.407493352890015

>  <fragmenstein_outcome>  (24) 
too moved

>  <fragmenstein_mode>  (24) 
expansion

>  <fragmenstein_error>  (24) 


$$$$
C1373-P3
     RDKit          3D

 58 59  0  0  0  0  0  0  0  0999 V2000
  -13.2470  -28.3851   33.8493 C   0  0  0  0  0  0  0  0  0  0  0  0
  -12.9619  -27.5601   32.6078 C   0  0  0  0  0  0  0  0  0  0  0  0
  -13.1523  -28.4165   31.3643 C   0  0  0  0  0  0  0  0  0  0  0  0
  -12.5568  -27.8810   30.0634 C   0  0  0  0  0  0  0  0  0  0  0  0
  -13.2288  -26.6146   29.5067 C   0  0  0  0  0  0  0  0  0  0  0  0
  -12.7208  -25.3442   30.1582 C   0  0  0  0  0  0  0  0  0  0  0  0
  -11.3477  -24.9692   29.6471 C   0  0  0  0  0  0  0  0  0  0  0  0
  -10.8394  -23.5928   30.1033 C   0  0  0  0  0  0  0  0  0  0  0  0
   -9.9427  -23.6149   31.3452 C   0  0  0  0  0  0  0  0  0  0  0  0
   -9.9194  -22.2242   31.9767 C   0  0  0  0  0  0  0  0  0  0  0  0
   -8.9322  -22.0911   33.1116 C   0  0  0  0  0  0  0  0  0  0  0  0
  -11.2770  -25.0273   28.2319 O   0  0  0  0  0  0  0  0  0  0  0  0
  -12.4154  -25.4046   27.5132 C   0  0  0  0  0  0  0  0  0  0  0  0
  -11.8778  -25.8924   26.3060 O   0  0  0  0  0  0  0  0  0  0  0  0
  -13.3045  -24.2734   27.3045 N   0  0  0  0  0  0  0  0  0  0  0  0
  -14.6224  -24.6868   26.7990 C   0  0  0  0  0  0  0  0  0  0  0  0
  -15.2391  -23.3796   26.3426 C   0  0  0  0  0  0  0  0  0  0  0  0
  -14.0758  -22.6087   25.7476 C   0  0  0  0  0  0  0  0  0  0  0  0
  -12.8348  -23.3045   26.2969 C   0  0  0  0  0  0  0  0  0  0  0  0
  -11.6522  -22.3804   26.5743 C   0  0  0  0  0  0  0  0  0  0  0  0
  -11.8550  -21.2923   27.6040 C   0  0  0  0  0  0  0  0  0  0  0  0
  -13.0704  -26.5498   28.0627 N   0  0  0  0  0  0  0  0  0  0  0  0
  -12.4523  -29.1142   34.0307 H   0  0  0  0  0  0  0  0  0  0  0  0
  -13.3297  -27.7525   34.7332 H   0  0  0  0  0  0  0  0  0  0  0  0
  -14.1933  -28.9286   33.7540 H   0  0  0  0  0  0  0  0  0  0  0  0
  -11.9458  -27.1584   32.6660 H   0  0  0  0  0  0  0  0  0  0  0  0
  -13.6679  -26.7246   32.5869 H   0  0  0  0  0  0  0  0  0  0  0  0
  -12.7068  -29.4023   31.5351 H   0  0  0  0  0  0  0  0  0  0  0  0
  -14.2246  -28.6021   31.2187 H   0  0  0  0  0  0  0  0  0  0  0  0
  -11.4760  -27.7511   30.1702 H   0  0  0  0  0  0  0  0  0  0  0  0
  -12.6799  -28.6946   29.3340 H   0  0  0  0  0  0  0  0  0  0  0  0
  -14.3049  -26.6954   29.7046 H   0  0  0  0  0  0  0  0  0  0  0  0
  -13.4415  -24.5624   29.9033 H   0  0  0  0  0  0  0  0  0  0  0  0
  -12.6830  -25.4495   31.2383 H   0  0  0  0  0  0  0  0  0  0  0  0
  -10.6431  -25.7138   30.0102 H   0  0  0  0  0  0  0  0  0  0  0  0
  -10.2744  -23.1074   29.3012 H   0  0  0  0  0  0  0  0  0  0  0  0
  -11.6837  -22.9276   30.2617 H   0  0  0  0  0  0  0  0  0  0  0  0
  -10.2747  -24.3665   32.0642 H   0  0  0  0  0  0  0  0  0  0  0  0
   -8.9287  -23.9036   31.0450 H   0  0  0  0  0  0  0  0  0  0  0  0
   -9.6717  -21.4984   31.2048 H   0  0  0  0  0  0  0  0  0  0  0  0
  -10.9141  -21.9501   32.3388 H   0  0  0  0  0  0  0  0  0  0  0  0
   -7.9415  -22.4560   32.8278 H   0  0  0  0  0  0  0  0  0  0  0  0
   -9.2833  -22.6396   33.9875 H   0  0  0  0  0  0  0  0  0  0  0  0
   -8.8369  -21.0399   33.3945 H   0  0  0  0  0  0  0  0  0  0  0  0
  -11.1065  -25.3046   26.2306 H   0  0  0  0  0  0  0  0  0  0  0  0
  -15.2458  -25.1476   27.5723 H   0  0  0  0  0  0  0  0  0  0  0  0
  -14.5434  -25.3742   25.9460 H   0  0  0  0  0  0  0  0  0  0  0  0
  -16.0524  -23.5279   25.6274 H   0  0  0  0  0  0  0  0  0  0  0  0
  -15.6560  -22.8551   27.2066 H   0  0  0  0  0  0  0  0  0  0  0  0
  -14.0935  -22.6942   24.6552 H   0  0  0  0  0  0  0  0  0  0  0  0
  -14.1110  -21.5452   25.9630 H   0  0  0  0  0  0  0  0  0  0  0  0
  -12.5043  -23.8804   25.4544 H   0  0  0  0  0  0  0  0  0  0  0  0
  -10.7738  -22.9699   26.8485 H   0  0  0  0  0  0  0  0  0  0  0  0
  -11.3988  -21.9052   25.6206 H   0  0  0  0  0  0  0  0  0  0  0  0
  -12.1675  -21.7099   28.5549 H   0  0  0  0  0  0  0  0  0  0  0  0
  -10.9210  -20.7526   27.7831 H   0  0  0  0  0  0  0  0  0  0  0  0
  -12.5917  -20.5595   27.2720 H   0  0  0  0  0  0  0  0  0  0  0  0
  -12.5492  -27.3410   27.7027 H   0  0  0  0  0  0  0  0  0  0  0  0
  1  2  1  0
  2  3  1  0
  3  4  1  0
  4  5  1  0
  5  6  1  0
  6  7  1  0
  7  8  1  0
  8  9  1  0
  9 10  1  0
 10 11  1  0
  7 12  1  0
 12 13  1  0
 13 14  1  0
 13 15  1  0
 15 16  1  0
 16 17  1  0
 17 18  1  0
 18 19  1  0
 19 20  1  0
 20 21  1  0
 13 22  1  0
 22  5  1  0
 19 15  1  0
  1 23  1  0
  1 24  1  0
  1 25  1  0
  2 26  1  0
  2 27  1  0
  3 28  1  0
  3 29  1  0
  4 30  1  0
  4 31  1  0
  5 32  1  0
  6 33  1  0
  6 34  1  0
  7 35  1  0
  8 36  1  0
  8 37  1  0
  9 38  1  0
  9 39  1  0
 10 40  1  0
 10 41  1  0
 11 42  1  0
 11 43  1  0
 11 44  1  0
 14 45  1  0
 16 46  1  0
 16 47  1  0
 17 48  1  0
 17 49  1  0
 18 50  1  0
 18 51  1  0
 19 52  1  0
 20 53  1  0
 20 54  1  0
 21 55  1  0
 21 56  1  0
 21 57  1  0
 22 58  1  0
M  END
>  <Energy>  (25) 
-181.2168539468318

>  <compound_id>  (25) 
1373

>  <target_id>  (25) 
1

>  <reference_id>  (25) 
3

>  <inspiration_ids>  (25) 
[3, 16]

>  <energy_score>  (25) 
-41.14362602109087

>  <distance_score>  (25) 
3.844837952890667

>  <path>  (25) 
/opt/xchem-fragalysis-2/maxwin/BulkDock/SCRATCH/505732/C1373-P3/C1373-P3.minimised.mol

>  <scratch_subdir>  (25) 
/opt/xchem-fragalysis-2/maxwin/BulkDock/SCRATCH/505732/C1373-P3

>  <fragmenstein_runtime>  (25) 
16.033465147018433

>  <fragmenstein_outcome>  (25) 
too moved

>  <fragmenstein_mode>  (25) 
expansion

>  <fragmenstein_error>  (25) 


$$$$
C1373-P16
     RDKit          3D

 58 59  0  0  0  0  0  0  0  0999 V2000
   -9.5874  -25.8748   32.2316 C   0  0  0  0  0  0  0  0  0  0  0  0
  -10.8092  -26.1066   33.1284 C   0  0  0  0  0  0  0  0  0  0  0  0
  -11.5052  -24.9509   33.7940 C   0  0  0  0  0  0  0  0  0  0  0  0
  -12.8640  -24.3174   33.5870 C   0  0  0  0  0  0  0  0  0  0  0  0
  -13.1091  -23.2602   32.5146 C   0  0  0  0  0  0  0  0  0  0  0  0
  -12.0735  -22.1748   32.6937 C   0  0  0  0  0  0  0  0  0  0  0  0
  -10.7505  -22.5492   32.0466 C   0  0  0  0  0  0  0  0  0  0  0  0
   -9.3334  -22.8388   32.9156 C   0  0  0  0  0  0  0  0  0  0  0  0
   -8.0362  -21.4994   33.1444 C   0  0  0  0  0  0  0  0  0  0  0  0
   -8.1826  -20.0249   33.7296 C   0  0  0  0  0  0  0  0  0  0  0  0
   -7.3735  -18.6927   33.9343 C   0  0  0  0  0  0  0  0  0  0  0  0
  -10.8876  -23.4738   30.9188 O   0  0  0  0  0  0  0  0  0  0  0  0
  -12.0685  -24.1485   30.5178 C   0  0  0  0  0  0  0  0  0  0  0  0
  -12.0160  -25.4555   30.9477 O   0  0  0  0  0  0  0  0  0  0  0  0
  -12.2952  -24.2352   29.0584 N   0  0  0  0  0  0  0  0  0  0  0  0
  -12.3335  -25.5804   28.4521 C   0  0  0  0  0  0  0  0  0  0  0  0
  -12.4867  -25.3108   26.9751 C   0  0  0  0  0  0  0  0  0  0  0  0
  -11.6099  -24.1032   26.7768 C   0  0  0  0  0  0  0  0  0  0  0  0
  -11.3254  -23.5656   28.2006 C   0  0  0  0  0  0  0  0  0  0  0  0
  -11.3923  -22.0673   28.1650 C   0  0  0  0  0  0  0  0  0  0  0  0
  -12.0570  -21.3705   29.2956 C   0  0  0  0  0  0  0  0  0  0  0  0
  -13.2209  -23.5764   31.1040 N   0  0  0  0  0  0  0  0  0  0  0  0
   -8.6969  -25.6616   32.8248 H   0  0  0  0  0  0  0  0  0  0  0  0
   -9.3996  -26.7666   31.6215 H   0  0  0  0  0  0  0  0  0  0  0  0
   -9.6685  -25.1112   31.4802 H   0  0  0  0  0  0  0  0  0  0  0  0
  -10.5007  -26.6925   33.9912 H   0  0  0  0  0  0  0  0  0  0  0  0
  -11.4321  -26.8008   32.6140 H   0  0  0  0  0  0  0  0  0  0  0  0
  -11.4252  -25.1675   34.8579 H   0  0  0  0  0  0  0  0  0  0  0  0
  -10.8756  -24.1411   33.6347 H   0  0  0  0  0  0  0  0  0  0  0  0
  -13.6497  -25.0224   33.6979 H   0  0  0  0  0  0  0  0  0  0  0  0
  -13.0167  -23.7168   34.4924 H   0  0  0  0  0  0  0  0  0  0  0  0
  -14.0766  -22.8074   32.7743 H   0  0  0  0  0  0  0  0  0  0  0  0
  -11.9965  -21.8771   33.7389 H   0  0  0  0  0  0  0  0  0  0  0  0
  -12.4566  -21.2810   32.1942 H   0  0  0  0  0  0  0  0  0  0  0  0
  -10.4872  -21.5855   31.6083 H   0  0  0  0  0  0  0  0  0  0  0  0
   -8.8046  -23.6027   32.3358 H   0  0  0  0  0  0  0  0  0  0  0  0
   -9.2957  -23.4849   33.7421 H   0  0  0  0  0  0  0  0  0  0  0  0
   -7.4846  -22.1183   33.7485 H   0  0  0  0  0  0  0  0  0  0  0  0
   -7.2475  -21.4841   32.3955 H   0  0  0  0  0  0  0  0  0  0  0  0
   -9.1651  -19.6728   33.3891 H   0  0  0  0  0  0  0  0  0  0  0  0
   -7.9967  -20.2749   34.7336 H   0  0  0  0  0  0  0  0  0  0  0  0
   -6.8910  -18.6605   34.9154 H   0  0  0  0  0  0  0  0  0  0  0  0
   -8.0875  -17.8624   34.0126 H   0  0  0  0  0  0  0  0  0  0  0  0
   -6.6528  -18.4009   33.1719 H   0  0  0  0  0  0  0  0  0  0  0  0
  -11.2164  -25.7749   30.5155 H   0  0  0  0  0  0  0  0  0  0  0  0
  -13.1511  -26.2096   28.7736 H   0  0  0  0  0  0  0  0  0  0  0  0
  -11.3964  -26.1344   28.6030 H   0  0  0  0  0  0  0  0  0  0  0  0
  -12.1754  -26.1589   26.3576 H   0  0  0  0  0  0  0  0  0  0  0  0
  -13.5285  -25.0734   26.7297 H   0  0  0  0  0  0  0  0  0  0  0  0
  -10.6737  -24.3863   26.2928 H   0  0  0  0  0  0  0  0  0  0  0  0
  -12.1242  -23.4015   26.1120 H   0  0  0  0  0  0  0  0  0  0  0  0
  -10.3087  -23.8875   28.4646 H   0  0  0  0  0  0  0  0  0  0  0  0
  -10.3700  -21.7087   28.1980 H   0  0  0  0  0  0  0  0  0  0  0  0
  -11.8316  -21.7177   27.2315 H   0  0  0  0  0  0  0  0  0  0  0  0
  -11.3281  -21.0966   30.0391 H   0  0  0  0  0  0  0  0  0  0  0  0
  -12.8894  -21.8866   29.7302 H   0  0  0  0  0  0  0  0  0  0  0  0
  -12.4799  -20.4437   28.9565 H   0  0  0  0  0  0  0  0  0  0  0  0
  -13.9387  -24.2712   30.9675 H   0  0  0  0  0  0  0  0  0  0  0  0
  1  2  1  0
  2  3  1  0
  3  4  1  0
  4  5  1  0
  5  6  1  0
  6  7  1  0
  7  8  1  0
  8  9  1  0
  9 10  1  0
 10 11  1  0
  7 12  1  0
 12 13  1  0
 13 14  1  0
 13 15  1  0
 15 16  1  0
 16 17  1  0
 17 18  1  0
 18 19  1  0
 19 20  1  0
 20 21  1  0
 13 22  1  0
 22  5  1  0
 19 15  1  0
  1 23  1  0
  1 24  1  0
  1 25  1  0
  2 26  1  0
  2 27  1  0
  3 28  1  0
  3 29  1  0
  4 30  1  0
  4 31  1  0
  5 32  1  0
  6 33  1  0
  6 34  1  0
  7 35  1  0
  8 36  1  0
  8 37  1  0
  9 38  1  0
  9 39  1  0
 10 40  1  0
 10 41  1  0
 11 42  1  0
 11 43  1  0
 11 44  1  0
 14 45  1  0
 16 46  1  0
 16 47  1  0
 17 48  1  0
 17 49  1  0
 18 50  1  0
 18 51  1  0
 19 52  1  0
 20 53  1  0
 20 54  1  0
 21 55  1  0
 21 56  1  0
 21 57  1  0
 22 58  1  0
M  END
>  <Energy>  (26) 
8.7460917634767039

>  <compound_id>  (26) 
1373

>  <target_id>  (26) 
1

>  <reference_id>  (26) 
16

>  <inspiration_ids>  (26) 
[3, 16]

>  <energy_score>  (26) 
148.81931968921663

>  <distance_score>  (26) 
1.9356556686844901

>  <path>  (26) 
/opt/xchem-fragalysis-2/maxwin/BulkDock/SCRATCH/505732/C1373-P16/C1373-P16.minimised.mol

>  <scratch_subdir>  (26) 
/opt/xchem-fragalysis-2/maxwin/BulkDock/SCRATCH/505732/C1373-P16

>  <fragmenstein_runtime>  (26) 
14.723089218139648

>  <fragmenstein_outcome>  (26) 
too moved

>  <fragmenstein_mode>  (26) 
expansion

>  <fragmenstein_error>  (26) 


$$$$
C1374-P3
     RDKit          3D

 52 55  0  0  0  0  0  0  0  0999 V2000
   -9.2476  -25.7896   33.6020 C   0  0  0  0  0  0  0  0  0  0  0  0
  -10.0260  -24.6889   33.0833 C   0  0  0  0  0  0  0  0  0  0  0  0
   -9.9477  -24.3016   31.6177 C   0  0  0  0  0  0  0  0  0  0  0  0
  -10.2189  -22.8050   31.4113 C   0  0  0  0  0  0  0  0  0  0  0  0
  -10.3682  -21.7657   32.3321 C   0  0  0  0  0  0  0  0  0  0  0  0
  -10.8505  -20.5067   31.9148 C   0  0  0  0  0  0  0  0  0  0  0  0
  -11.1938  -20.2678   30.5770 C   0  0  0  0  0  0  0  0  0  0  0  0
  -11.0121  -21.2904   29.6742 C   0  0  0  0  0  0  0  0  0  0  0  0
  -11.3703  -21.3085   28.3456 N   0  0  0  0  0  0  0  0  0  0  0  0
  -11.5006  -22.4316   27.4027 C   0  0  0  0  0  0  0  0  0  0  0  0
  -11.4057  -23.5849   27.5808 O   0  0  0  0  0  0  0  0  0  0  0  0
  -11.6804  -21.7038   26.1984 N   0  0  0  0  0  0  0  0  0  0  0  0
  -11.6921  -22.1522   24.8131 C   0  0  0  0  0  0  0  0  0  0  0  0
  -12.3806  -21.2805   23.8383 C   0  0  0  0  0  0  0  0  0  0  0  0
  -13.6713  -21.4665   24.5152 C   0  0  0  0  0  0  0  0  0  0  0  0
  -13.1530  -21.5127   25.9255 C   0  0  0  0  0  0  0  0  0  0  0  0
  -10.4421  -22.4769   30.0940 C   0  0  0  0  0  0  0  0  0  0  0  0
  -11.0191  -25.1310   30.8577 C   0  0  0  0  0  0  0  0  0  0  0  0
  -11.0773  -25.6710   29.6548 N   0  0  0  0  0  0  0  0  0  0  0  0
  -12.4151  -26.0038   29.5319 C   0  0  0  0  0  0  0  0  0  0  0  0
  -13.1534  -26.5701   28.2544 C   0  0  0  0  0  0  0  0  0  0  0  0
  -12.5871  -26.8882   27.0999 N   0  0  0  0  0  0  0  0  0  0  0  0
  -13.5997  -27.3661   26.3079 C   0  0  0  0  0  0  0  0  0  0  0  0
  -14.8045  -27.3210   26.9545 C   0  0  0  0  0  0  0  0  0  0  0  0
  -14.5149  -26.8168   28.1903 N   0  0  0  0  0  0  0  0  0  0  0  0
  -15.5031  -26.5935   29.2191 C   0  0  0  0  0  0  0  0  0  0  0  0
  -13.1182  -25.7918   30.6499 N   0  0  0  0  0  0  0  0  0  0  0  0
  -12.2112  -25.2504   31.5075 O   0  0  0  0  0  0  0  0  0  0  0  0
   -9.8107  -26.7163   33.4498 H   0  0  0  0  0  0  0  0  0  0  0  0
   -8.3016  -25.5480   33.1341 H   0  0  0  0  0  0  0  0  0  0  0  0
   -9.0519  -25.9582   34.6651 H   0  0  0  0  0  0  0  0  0  0  0  0
  -10.9328  -25.2623   33.2171 H   0  0  0  0  0  0  0  0  0  0  0  0
   -9.8834  -23.8486   33.7544 H   0  0  0  0  0  0  0  0  0  0  0  0
   -8.9542  -24.4981   31.2044 H   0  0  0  0  0  0  0  0  0  0  0  0
  -10.1817  -21.8929   33.3936 H   0  0  0  0  0  0  0  0  0  0  0  0
  -11.0081  -19.7233   32.6538 H   0  0  0  0  0  0  0  0  0  0  0  0
  -11.5973  -19.3076   30.2799 H   0  0  0  0  0  0  0  0  0  0  0  0
  -11.5955  -20.4456   27.8682 H   0  0  0  0  0  0  0  0  0  0  0  0
  -12.0786  -23.1644   24.8605 H   0  0  0  0  0  0  0  0  0  0  0  0
  -10.6427  -22.2780   24.5207 H   0  0  0  0  0  0  0  0  0  0  0  0
  -12.3346  -21.6744   22.8235 H   0  0  0  0  0  0  0  0  0  0  0  0
  -12.0013  -20.2563   23.8739 H   0  0  0  0  0  0  0  0  0  0  0  0
  -14.4269  -20.7136   24.3333 H   0  0  0  0  0  0  0  0  0  0  0  0
  -14.1247  -22.4328   24.2693 H   0  0  0  0  0  0  0  0  0  0  0  0
  -13.7289  -22.2528   26.5025 H   0  0  0  0  0  0  0  0  0  0  0  0
  -13.3436  -20.5562   26.4078 H   0  0  0  0  0  0  0  0  0  0  0  0
  -10.2118  -23.2322   29.3576 H   0  0  0  0  0  0  0  0  0  0  0  0
  -13.4183  -27.7451   25.3151 H   0  0  0  0  0  0  0  0  0  0  0  0
  -15.8012  -27.6134   26.6545 H   0  0  0  0  0  0  0  0  0  0  0  0
  -16.4933  -26.8530   28.8334 H   0  0  0  0  0  0  0  0  0  0  0  0
  -15.4971  -25.5355   29.4919 H   0  0  0  0  0  0  0  0  0  0  0  0
  -15.2751  -27.2361   30.0726 H   0  0  0  0  0  0  0  0  0  0  0  0
  1  2  1  0
  2  3  1  0
  3  4  1  0
  4  5  2  0
  5  6  1  0
  6  7  2  0
  7  8  1  0
  8  9  1  0
  9 10  1  0
 10 11  2  0
 10 12  1  0
 12 13  1  0
 13 14  1  0
 14 15  1  0
 15 16  1  0
  8 17  2  0
  3 18  1  0
 18 19  2  0
 19 20  1  0
 20 21  1  0
 21 22  2  0
 22 23  1  0
 23 24  2  0
 24 25  1  0
 25 26  1  0
 20 27  2  0
 27 28  1  0
 17  4  1  0
 28 18  1  0
 16 12  1  0
 25 21  1  0
  1 29  1  0
  1 30  1  0
  1 31  1  0
  2 32  1  0
  2 33  1  0
  3 34  1  0
  5 35  1  0
  6 36  1  0
  7 37  1  0
  9 38  1  0
 13 39  1  0
 13 40  1  0
 14 41  1  0
 14 42  1  0
 15 43  1  0
 15 44  1  0
 16 45  1  0
 16 46  1  0
 17 47  1  0
 23 48  1  0
 24 49  1  0
 26 50  1  0
 26 51  1  0
 26 52  1  0
M  END
>  <Energy>  (27) 
136.43639107247625

>  <compound_id>  (27) 
1374

>  <target_id>  (27) 
1

>  <reference_id>  (27) 
3

>  <inspiration_ids>  (27) 
[3, 34]

>  <energy_score>  (27) 
39.63669921190376

>  <distance_score>  (27) 
2.5833340401915073

>  <path>  (27) 
/opt/xchem-fragalysis-2/maxwin/BulkDock/SCRATCH/505732/C1374-P3/C1374-P3.minimised.mol

>  <scratch_subdir>  (27) 
/opt/xchem-fragalysis-2/maxwin/BulkDock/SCRATCH/505732/C1374-P3

>  <fragmenstein_runtime>  (27) 
8.438339710235596

>  <fragmenstein_outcome>  (27) 
too moved

>  <fragmenstein_mode>  (27) 
expansion

>  <fragmenstein_error>  (27) 


$$$$
C1374-P34
     RDKit          3D

 52 55  0  0  0  0  0  0  0  0999 V2000
   -9.7654  -24.4290   35.3130 C   0  0  0  0  0  0  0  0  0  0  0  0
   -8.4981  -24.6650   34.6215 C   0  0  0  0  0  0  0  0  0  0  0  0
   -8.4420  -23.9550   33.3285 C   0  0  0  0  0  0  0  0  0  0  0  0
   -9.5584  -22.9457   32.9653 C   0  0  0  0  0  0  0  0  0  0  0  0
  -10.5256  -22.1890   33.5943 C   0  0  0  0  0  0  0  0  0  0  0  0
  -11.3903  -21.3918   32.8349 C   0  0  0  0  0  0  0  0  0  0  0  0
  -11.2941  -21.3831   31.4284 C   0  0  0  0  0  0  0  0  0  0  0  0
  -10.3210  -22.0601   30.7072 C   0  0  0  0  0  0  0  0  0  0  0  0
  -11.0203  -22.9017   29.6758 N   0  0  0  0  0  0  0  0  0  0  0  0
  -10.3717  -23.7268   27.8393 C   0  0  0  0  0  0  0  0  0  0  0  0
   -9.3201  -23.5978   27.2426 O   0  0  0  0  0  0  0  0  0  0  0  0
  -11.7140  -24.6293   27.1252 N   0  0  0  0  0  0  0  0  0  0  0  0
  -11.8758  -25.2093   25.8453 C   0  0  0  0  0  0  0  0  0  0  0  0
  -13.1935  -25.9553   25.8429 C   0  0  0  0  0  0  0  0  0  0  0  0
  -13.0463  -26.6045   27.1714 C   0  0  0  0  0  0  0  0  0  0  0  0
  -11.6503  -26.1189   27.5161 C   0  0  0  0  0  0  0  0  0  0  0  0
   -9.5388  -22.7345   31.6216 C   0  0  0  0  0  0  0  0  0  0  0  0
   -8.1727  -25.0263   32.2617 C   0  0  0  0  0  0  0  0  0  0  0  0
   -7.6718  -24.7750   31.0746 N   0  0  0  0  0  0  0  0  0  0  0  0
   -8.6549  -25.2957   30.2977 C   0  0  0  0  0  0  0  0  0  0  0  0
   -9.5621  -24.2611   29.4547 C   0  0  0  0  0  0  0  0  0  0  0  0
   -9.2851  -22.6737   28.9070 N   0  0  0  0  0  0  0  0  0  0  0  0
  -10.8113  -21.8595   28.1139 C   0  0  0  0  0  0  0  0  0  0  0  0
  -12.1130  -23.0050   28.2464 C   0  0  0  0  0  0  0  0  0  0  0  0
  -11.3816  -24.5570   29.2003 N   0  0  0  0  0  0  0  0  0  0  0  0
  -11.5776  -24.9343   30.6164 C   0  0  0  0  0  0  0  0  0  0  0  0
   -9.2007  -26.3907   30.8619 N   0  0  0  0  0  0  0  0  0  0  0  0
   -8.9763  -26.1400   32.2366 O   0  0  0  0  0  0  0  0  0  0  0  0
   -9.9851  -25.2209   35.9885 H   0  0  0  0  0  0  0  0  0  0  0  0
  -10.6632  -24.2853   34.7177 H   0  0  0  0  0  0  0  0  0  0  0  0
   -9.6039  -23.5515   35.8964 H   0  0  0  0  0  0  0  0  0  0  0  0
   -7.6964  -24.2450   35.2251 H   0  0  0  0  0  0  0  0  0  0  0  0
   -8.3355  -25.7396   34.5246 H   0  0  0  0  0  0  0  0  0  0  0  0
   -7.5411  -23.3445   33.3038 H   0  0  0  0  0  0  0  0  0  0  0  0
  -10.6851  -22.1766   34.6667 H   0  0  0  0  0  0  0  0  0  0  0  0
  -12.2050  -20.8729   33.3311 H   0  0  0  0  0  0  0  0  0  0  0  0
  -12.1549  -21.0838   30.8537 H   0  0  0  0  0  0  0  0  0  0  0  0
  -12.0206  -23.1236   29.8993 H   0  0  0  0  0  0  0  0  0  0  0  0
  -10.9802  -25.6736   25.4086 H   0  0  0  0  0  0  0  0  0  0  0  0
  -12.0535  -24.2535   25.3449 H   0  0  0  0  0  0  0  0  0  0  0  0
  -13.3237  -26.6497   25.0210 H   0  0  0  0  0  0  0  0  0  0  0  0
  -14.0504  -25.2713   25.8332 H   0  0  0  0  0  0  0  0  0  0  0  0
  -13.2352  -27.6733   27.2153 H   0  0  0  0  0  0  0  0  0  0  0  0
  -13.7476  -26.1832   27.8808 H   0  0  0  0  0  0  0  0  0  0  0  0
  -10.7104  -26.5109   27.1060 H   0  0  0  0  0  0  0  0  0  0  0  0
  -11.5114  -26.4382   28.5478 H   0  0  0  0  0  0  0  0  0  0  0  0
   -8.6687  -23.1528   31.1932 H   0  0  0  0  0  0  0  0  0  0  0  0
  -10.6885  -21.0084   27.5008 H   0  0  0  0  0  0  0  0  0  0  0  0
  -12.9481  -23.1927   27.5891 H   0  0  0  0  0  0  0  0  0  0  0  0
  -12.2494  -24.2697   31.1318 H   0  0  0  0  0  0  0  0  0  0  0  0
  -11.5074  -25.9986   30.5826 H   0  0  0  0  0  0  0  0  0  0  0  0
  -10.7515  -24.7268   31.2760 H   0  0  0  0  0  0  0  0  0  0  0  0
  1  2  1  0
  2  3  1  0
  3  4  1  0
  4  5  2  0
  5  6  1  0
  6  7  2  0
  7  8  1  0
  8  9  1  0
  9 10  1  0
 10 11  2  0
 10 12  1  0
 12 13  1  0
 13 14  1  0
 14 15  1  0
 15 16  1  0
  8 17  2  0
  3 18  1  0
 18 19  2  0
 19 20  1  0
 20 21  1  0
 21 22  2  0
 22 23  1  0
 23 24  2  0
 24 25  1  0
 25 26  1  0
 20 27  2  0
 27 28  1  0
 17  4  1  0
 28 18  1  0
 16 12  1  0
 25 21  1  0
  1 29  1  0
  1 30  1  0
  1 31  1  0
  2 32  1  0
  2 33  1  0
  3 34  1  0
  5 35  1  0
  6 36  1  0
  7 37  1  0
  9 38  1  0
 13 39  1  0
 13 40  1  0
 14 41  1  0
 14 42  1  0
 15 43  1  0
 15 44  1  0
 16 45  1  0
 16 46  1  0
 17 47  1  0
 23 48  1  0
 24 49  1  0
 26 50  1  0
 26 51  1  0
 26 52  1  0
M  END
>  <Energy>  (28) 
1646.3409658839635

>  <compound_id>  (28) 
1374

>  <target_id>  (28) 
1

>  <reference_id>  (28) 
34

>  <inspiration_ids>  (28) 
[3, 34]

>  <energy_score>  (28) 
1549.5412740233864

>  <distance_score>  (28) 
2.260133127865428

>  <path>  (28) 
/opt/xchem-fragalysis-2/maxwin/BulkDock/SCRATCH/505732/C1374-P34/C1374-P34.minimised.mol

>  <scratch_subdir>  (28) 
/opt/xchem-fragalysis-2/maxwin/BulkDock/SCRATCH/505732/C1374-P34

>  <fragmenstein_runtime>  (28) 
9.511512279510498

>  <fragmenstein_outcome>  (28) 
too moved

>  <fragmenstein_mode>  (28) 
expansion

>  <fragmenstein_error>  (28) 


$$$$
C1376-P3
     RDKit          3D

 54 57  0  0  0  0  0  0  0  0999 V2000
  -11.6911  -28.0392   32.8986 N   0  0  0  0  0  0  0  0  0  0  0  0
  -12.0417  -26.6502   32.7243 C   0  0  0  0  0  0  0  0  0  0  0  0
  -13.1370  -26.4293   31.7361 C   0  0  0  0  0  0  0  0  0  0  0  0
  -14.4940  -26.2251   32.2404 C   0  0  0  0  0  0  0  0  0  0  0  0
  -15.4978  -25.9606   31.3914 C   0  0  0  0  0  0  0  0  0  0  0  0
  -15.2287  -25.9126   30.0333 N   0  0  0  0  0  0  0  0  0  0  0  0
  -16.0991  -25.6898   28.9944 C   0  0  0  0  0  0  0  0  0  0  0  0
  -15.3965  -25.7926   27.8147 C   0  0  0  0  0  0  0  0  0  0  0  0
  -14.0353  -26.0577   28.1401 C   0  0  0  0  0  0  0  0  0  0  0  0
  -12.9187  -26.2821   27.1946 C   0  0  0  0  0  0  0  0  0  0  0  0
  -11.5947  -25.5762   27.4252 C   0  0  0  0  0  0  0  0  0  0  0  0
  -11.4969  -24.5574   28.4532 N   0  0  0  0  0  0  0  0  0  0  0  0
  -11.8098  -23.4304   28.4049 C   0  0  0  0  0  0  0  0  0  0  0  0
  -11.5428  -22.2706   29.3972 N   0  0  0  0  0  0  0  0  0  0  0  0
  -10.7818  -22.2348   30.5668 C   0  0  0  0  0  0  0  0  0  0  0  0
   -9.9527  -23.2742   30.9840 C   0  0  0  0  0  0  0  0  0  0  0  0
   -9.2269  -23.1913   32.1761 C   0  0  0  0  0  0  0  0  0  0  0  0
   -9.3808  -22.0949   33.0176 C   0  0  0  0  0  0  0  0  0  0  0  0
  -10.2518  -21.0767   32.6562 C   0  0  0  0  0  0  0  0  0  0  0  0
  -10.9240  -21.1364   31.4318 C   0  0  0  0  0  0  0  0  0  0  0  0
  -12.6039  -22.6831   27.3670 N   0  0  0  0  0  0  0  0  0  0  0  0
  -13.3260  -23.1807   26.1228 C   0  0  0  0  0  0  0  0  0  0  0  0
  -13.6337  -22.0879   25.1337 C   0  0  0  0  0  0  0  0  0  0  0  0
  -12.4673  -21.2073   25.3491 C   0  0  0  0  0  0  0  0  0  0  0  0
  -11.6801  -22.0920   26.2685 C   0  0  0  0  0  0  0  0  0  0  0  0
  -13.9653  -26.1326   29.5122 C   0  0  0  0  0  0  0  0  0  0  0  0
  -12.8936  -26.3784   30.4167 C   0  0  0  0  0  0  0  0  0  0  0  0
  -10.9000  -28.1271   33.5469 H   0  0  0  0  0  0  0  0  0  0  0  0
  -11.3896  -28.4284   32.0103 H   0  0  0  0  0  0  0  0  0  0  0  0
  -12.4107  -26.3840   33.6935 H   0  0  0  0  0  0  0  0  0  0  0  0
  -11.1763  -26.0218   32.5050 H   0  0  0  0  0  0  0  0  0  0  0  0
  -14.6951  -26.3284   33.3015 H   0  0  0  0  0  0  0  0  0  0  0  0
  -16.5199  -25.8061   31.7102 H   0  0  0  0  0  0  0  0  0  0  0  0
  -17.1453  -25.4956   29.1843 H   0  0  0  0  0  0  0  0  0  0  0  0
  -15.8202  -25.6896   26.8249 H   0  0  0  0  0  0  0  0  0  0  0  0
  -12.7296  -27.3636   27.1685 H   0  0  0  0  0  0  0  0  0  0  0  0
  -13.2667  -26.0622   26.1778 H   0  0  0  0  0  0  0  0  0  0  0  0
  -10.8847  -26.3613   27.7148 H   0  0  0  0  0  0  0  0  0  0  0  0
  -11.1991  -25.2090   26.4717 H   0  0  0  0  0  0  0  0  0  0  0  0
  -11.8861  -21.4049   29.0045 H   0  0  0  0  0  0  0  0  0  0  0  0
   -9.8507  -24.1714   30.3883 H   0  0  0  0  0  0  0  0  0  0  0  0
   -8.5593  -24.0035   32.4540 H   0  0  0  0  0  0  0  0  0  0  0  0
   -8.8385  -22.0536   33.9559 H   0  0  0  0  0  0  0  0  0  0  0  0
  -10.4315  -20.2386   33.3213 H   0  0  0  0  0  0  0  0  0  0  0  0
  -11.6028  -20.3227   31.1805 H   0  0  0  0  0  0  0  0  0  0  0  0
  -12.8217  -24.0228   25.6539 H   0  0  0  0  0  0  0  0  0  0  0  0
  -14.2831  -23.5861   26.4665 H   0  0  0  0  0  0  0  0  0  0  0  0
  -13.6732  -22.4833   24.1167 H   0  0  0  0  0  0  0  0  0  0  0  0
  -14.5800  -21.5827   25.3369 H   0  0  0  0  0  0  0  0  0  0  0  0
  -11.9376  -20.9553   24.4268 H   0  0  0  0  0  0  0  0  0  0  0  0
  -12.7469  -20.2861   25.8582 H   0  0  0  0  0  0  0  0  0  0  0  0
  -10.9730  -21.4790   26.8316 H   0  0  0  0  0  0  0  0  0  0  0  0
  -11.0675  -22.8544   25.7588 H   0  0  0  0  0  0  0  0  0  0  0  0
  -11.8893  -26.5277   30.0380 H   0  0  0  0  0  0  0  0  0  0  0  0
  1  2  1  0
  2  3  1  0
  3  4  1  0
  4  5  2  0
  5  6  1  0
  6  7  1  0
  7  8  2  0
  8  9  1  0
  9 10  1  0
 10 11  1  0
 11 12  1  0
 12 13  2  3
 13 14  1  0
 14 15  1  0
 15 16  2  0
 16 17  1  0
 17 18  2  0
 18 19  1  0
 19 20  2  0
 13 21  1  0
 21 22  1  0
 22 23  1  0
 23 24  1  0
 24 25  1  0
  9 26  2  0
 26 27  1  0
 27  3  2  0
 26  6  1  0
 20 15  1  0
 25 21  1  0
  1 28  1  0
  1 29  1  0
  2 30  1  0
  2 31  1  0
  4 32  1  0
  5 33  1  0
  7 34  1  0
  8 35  1  0
 10 36  1  0
 10 37  1  0
 11 38  1  0
 11 39  1  0
 14 40  1  0
 16 41  1  0
 17 42  1  0
 18 43  1  0
 19 44  1  0
 20 45  1  0
 22 46  1  0
 22 47  1  0
 23 48  1  0
 23 49  1  0
 24 50  1  0
 24 51  1  0
 25 52  1  0
 25 53  1  0
 27 54  1  0
M  END
>  <Energy>  (29) 
66.857369530538051

>  <compound_id>  (29) 
1376

>  <target_id>  (29) 
1

>  <reference_id>  (29) 
3

>  <inspiration_ids>  (29) 
[3, 39]

>  <energy_score>  (29) 
34.880473461272686

>  <distance_score>  (29) 
1.878986219099893

>  <path>  (29) 
/opt/xchem-fragalysis-2/maxwin/BulkDock/SCRATCH/505732/C1376-P3/C1376-P3.minimised.mol

>  <scratch_subdir>  (29) 
/opt/xchem-fragalysis-2/maxwin/BulkDock/SCRATCH/505732/C1376-P3

>  <fragmenstein_runtime>  (29) 
5.874753952026367

>  <fragmenstein_outcome>  (29) 
too moved

>  <fragmenstein_mode>  (29) 
expansion

>  <fragmenstein_error>  (29) 


$$$$
C1376-P39
     RDKit          3D

 54 57  0  0  0  0  0  0  0  0999 V2000
  -12.8239  -24.5212   33.5567 N   0  0  0  0  0  0  0  0  0  0  0  0
  -13.1142  -23.6458   32.4476 C   0  0  0  0  0  0  0  0  0  0  0  0
  -12.9776  -24.2007   31.0223 C   0  0  0  0  0  0  0  0  0  0  0  0
  -13.1307  -23.1571   30.0201 C   0  0  0  0  0  0  0  0  0  0  0  0
  -13.3580  -23.5303   28.7613 C   0  0  0  0  0  0  0  0  0  0  0  0
  -13.5968  -24.8449   28.4394 N   0  0  0  0  0  0  0  0  0  0  0  0
  -14.4216  -25.4705   27.5070 C   0  0  0  0  0  0  0  0  0  0  0  0
  -14.1019  -26.8032   27.4573 C   0  0  0  0  0  0  0  0  0  0  0  0
  -12.9899  -26.9311   28.3243 C   0  0  0  0  0  0  0  0  0  0  0  0
  -11.9535  -27.9310   28.1341 C   0  0  0  0  0  0  0  0  0  0  0  0
  -11.1702  -27.4995   26.8432 C   0  0  0  0  0  0  0  0  0  0  0  0
  -10.1941  -26.6035   27.3423 N   0  0  0  0  0  0  0  0  0  0  0  0
  -10.6863  -25.5090   27.5020 C   0  0  0  0  0  0  0  0  0  0  0  0
  -10.5988  -24.5987   28.6183 N   0  0  0  0  0  0  0  0  0  0  0  0
  -10.0144  -24.7453   29.8729 C   0  0  0  0  0  0  0  0  0  0  0  0
   -9.4861  -25.9402   30.2110 C   0  0  0  0  0  0  0  0  0  0  0  0
   -9.1288  -26.2316   31.5171 C   0  0  0  0  0  0  0  0  0  0  0  0
   -9.2846  -25.3526   32.5687 C   0  0  0  0  0  0  0  0  0  0  0  0
   -9.9377  -24.2005   32.3172 C   0  0  0  0  0  0  0  0  0  0  0  0
  -10.3693  -23.9864   31.0181 C   0  0  0  0  0  0  0  0  0  0  0  0
  -11.6178  -24.7824   26.6797 N   0  0  0  0  0  0  0  0  0  0  0  0
  -12.3639  -25.1862   25.4186 C   0  0  0  0  0  0  0  0  0  0  0  0
  -13.0988  -23.9171   25.0359 C   0  0  0  0  0  0  0  0  0  0  0  0
  -11.9036  -23.0653   25.0061 C   0  0  0  0  0  0  0  0  0  0  0  0
  -10.9124  -23.9479   25.7129 C   0  0  0  0  0  0  0  0  0  0  0  0
  -12.9435  -25.8111   29.1622 C   0  0  0  0  0  0  0  0  0  0  0  0
  -12.6150  -25.4416   30.5493 C   0  0  0  0  0  0  0  0  0  0  0  0
  -12.9361  -24.0623   34.4638 H   0  0  0  0  0  0  0  0  0  0  0  0
  -11.8721  -24.8581   33.5132 H   0  0  0  0  0  0  0  0  0  0  0  0
  -14.1405  -23.2831   32.5786 H   0  0  0  0  0  0  0  0  0  0  0  0
  -12.4867  -22.7525   32.5573 H   0  0  0  0  0  0  0  0  0  0  0  0
  -12.8860  -22.1372   30.2835 H   0  0  0  0  0  0  0  0  0  0  0  0
  -13.2025  -22.8681   27.9332 H   0  0  0  0  0  0  0  0  0  0  0  0
  -15.1582  -24.9798   26.8994 H   0  0  0  0  0  0  0  0  0  0  0  0
  -14.4954  -27.5068   26.7386 H   0  0  0  0  0  0  0  0  0  0  0  0
  -11.3393  -27.8206   29.0238 H   0  0  0  0  0  0  0  0  0  0  0  0
  -12.3565  -28.9433   28.1132 H   0  0  0  0  0  0  0  0  0  0  0  0
  -11.8203  -27.0948   26.1080 H   0  0  0  0  0  0  0  0  0  0  0  0
  -10.6438  -28.2228   26.2214 H   0  0  0  0  0  0  0  0  0  0  0  0
  -11.0633  -23.7453   28.3773 H   0  0  0  0  0  0  0  0  0  0  0  0
   -9.3954  -26.7227   29.4715 H   0  0  0  0  0  0  0  0  0  0  0  0
   -8.6811  -27.2062   31.6378 H   0  0  0  0  0  0  0  0  0  0  0  0
   -8.9498  -25.5876   33.5632 H   0  0  0  0  0  0  0  0  0  0  0  0
  -10.1524  -23.4688   33.0742 H   0  0  0  0  0  0  0  0  0  0  0  0
  -10.9112  -23.0524   30.8774 H   0  0  0  0  0  0  0  0  0  0  0  0
  -11.7157  -25.7182   24.7079 H   0  0  0  0  0  0  0  0  0  0  0  0
  -13.1600  -25.9079   25.5530 H   0  0  0  0  0  0  0  0  0  0  0  0
  -13.7280  -23.9094   24.1426 H   0  0  0  0  0  0  0  0  0  0  0  0
  -13.7580  -23.5995   25.8144 H   0  0  0  0  0  0  0  0  0  0  0  0
  -11.6304  -22.8468   23.9690 H   0  0  0  0  0  0  0  0  0  0  0  0
  -11.9677  -22.1546   25.5721 H   0  0  0  0  0  0  0  0  0  0  0  0
  -10.1823  -23.5554   26.3836 H   0  0  0  0  0  0  0  0  0  0  0  0
  -10.3032  -24.4778   24.9685 H   0  0  0  0  0  0  0  0  0  0  0  0
  -12.3236  -26.2384   31.2168 H   0  0  0  0  0  0  0  0  0  0  0  0
  1  2  1  0
  2  3  1  0
  3  4  1  0
  4  5  2  0
  5  6  1  0
  6  7  1  0
  7  8  2  0
  8  9  1  0
  9 10  1  0
 10 11  1  0
 11 12  1  0
 12 13  2  3
 13 14  1  0
 14 15  1  0
 15 16  2  0
 16 17  1  0
 17 18  2  0
 18 19  1  0
 19 20  2  0
 13 21  1  0
 21 22  1  0
 22 23  1  0
 23 24  1  0
 24 25  1  0
  9 26  2  0
 26 27  1  0
 27  3  2  0
 26  6  1  0
 20 15  1  0
 25 21  1  0
  1 28  1  0
  1 29  1  0
  2 30  1  0
  2 31  1  0
  4 32  1  0
  5 33  1  0
  7 34  1  0
  8 35  1  0
 10 36  1  0
 10 37  1  0
 11 38  1  0
 11 39  1  0
 14 40  1  0
 16 41  1  0
 17 42  1  0
 18 43  1  0
 19 44  1  0
 20 45  1  0
 22 46  1  0
 22 47  1  0
 23 48  1  0
 23 49  1  0
 24 50  1  0
 24 51  1  0
 25 52  1  0
 25 53  1  0
 27 54  1  0
M  END
>  <Energy>  (30) 
215.99590137133256

>  <compound_id>  (30) 
1376

>  <target_id>  (30) 
1

>  <reference_id>  (30) 
39

>  <inspiration_ids>  (30) 
[3, 39]

>  <energy_score>  (30) 
177.33181418992132

>  <distance_score>  (30) 
2.663388915563897

>  <path>  (30) 
/opt/xchem-fragalysis-2/maxwin/BulkDock/SCRATCH/505732/C1376-P39/C1376-P39.minimised.mol

>  <scratch_subdir>  (30) 
/opt/xchem-fragalysis-2/maxwin/BulkDock/SCRATCH/505732/C1376-P39

>  <fragmenstein_runtime>  (30) 
9.36638355255127

>  <fragmenstein_outcome>  (30) 
too moved

>  <fragmenstein_mode>  (30) 
expansion

>  <fragmenstein_error>  (30) 


$$$$
C1379-P3
     RDKit          3D

 36 38  0  0  0  0  0  0  0  0999 V2000
  -12.4007  -25.3484   31.0714 O   0  0  0  0  0  0  0  0  0  0  0  0
  -12.0410  -24.8404   29.7726 C   0  0  0  0  0  0  0  0  0  0  0  0
  -11.5723  -26.0684   28.9847 C   0  0  0  0  0  0  0  0  0  0  0  0
  -12.6530  -26.3619   27.9602 C   0  0  0  0  0  0  0  0  0  0  0  0
  -13.8378  -25.5652   28.4466 C   0  0  0  0  0  0  0  0  0  0  0  0
  -13.2627  -24.3752   29.0877 N   0  0  0  0  0  0  0  0  0  0  0  0
  -13.0689  -23.3770   28.0424 N   0  0  0  0  0  0  0  0  0  0  0  0
  -11.8772  -22.5131   28.0794 C   0  0  0  0  0  0  0  0  0  0  0  0
  -10.8946  -23.1259   27.1260 C   0  0  0  0  0  0  0  0  0  0  0  0
  -11.4151  -23.2597   25.7288 C   0  0  0  0  0  0  0  0  0  0  0  0
  -12.0092  -22.0268   25.0965 C   0  0  0  0  0  0  0  0  0  0  0  0
  -12.7113  -21.1293   26.0836 C   0  0  0  0  0  0  0  0  0  0  0  0
  -12.0805  -21.0989   27.4756 C   0  0  0  0  0  0  0  0  0  0  0  0
  -11.2995  -22.3934   29.4066 N   0  0  0  0  0  0  0  0  0  0  0  0
  -11.0497  -23.6726   30.0723 C   0  0  0  0  0  0  0  0  0  0  0  0
  -11.5845  -25.6913   31.4761 H   0  0  0  0  0  0  0  0  0  0  0  0
  -11.4561  -26.9459   29.6328 H   0  0  0  0  0  0  0  0  0  0  0  0
  -10.6487  -25.9562   28.4413 H   0  0  0  0  0  0  0  0  0  0  0  0
  -12.3370  -26.0294   26.9656 H   0  0  0  0  0  0  0  0  0  0  0  0
  -12.8759  -27.4314   27.8955 H   0  0  0  0  0  0  0  0  0  0  0  0
  -14.5510  -25.3389   27.6451 H   0  0  0  0  0  0  0  0  0  0  0  0
  -14.3889  -26.1393   29.2024 H   0  0  0  0  0  0  0  0  0  0  0  0
  -13.8997  -22.7781   28.0112 H   0  0  0  0  0  0  0  0  0  0  0  0
  -10.6852  -24.1386   27.4260 H   0  0  0  0  0  0  0  0  0  0  0  0
   -9.9802  -22.5344   27.1024 H   0  0  0  0  0  0  0  0  0  0  0  0
  -10.5857  -23.6184   25.1145 H   0  0  0  0  0  0  0  0  0  0  0  0
  -12.1926  -24.0294   25.7595 H   0  0  0  0  0  0  0  0  0  0  0  0
  -12.7194  -22.3215   24.3133 H   0  0  0  0  0  0  0  0  0  0  0  0
  -11.2387  -21.4827   24.5483 H   0  0  0  0  0  0  0  0  0  0  0  0
  -13.7483  -21.4639   26.1522 H   0  0  0  0  0  0  0  0  0  0  0  0
  -12.7258  -20.1262   25.6619 H   0  0  0  0  0  0  0  0  0  0  0  0
  -12.6492  -20.4404   28.1183 H   0  0  0  0  0  0  0  0  0  0  0  0
  -11.1116  -20.5889   27.4117 H   0  0  0  0  0  0  0  0  0  0  0  0
  -11.8359  -21.7682   29.9990 H   0  0  0  0  0  0  0  0  0  0  0  0
  -11.0379  -23.4513   31.1465 H   0  0  0  0  0  0  0  0  0  0  0  0
  -10.0233  -23.9799   29.8983 H   0  0  0  0  0  0  0  0  0  0  0  0
  1  2  1  0
  2  3  1  0
  3  4  1  0
  4  5  1  0
  5  6  1  0
  6  7  1  0
  7  8  1  0
  8  9  1  0
  9 10  1  0
 10 11  1  0
 11 12  1  0
 12 13  1  0
  8 14  1  0
 14 15  1  0
  6  2  1  0
 13  8  1  0
 15  2  1  0
  1 16  1  0
  3 17  1  0
  3 18  1  0
  4 19  1  0
  4 20  1  0
  5 21  1  0
  5 22  1  0
  7 23  1  0
  9 24  1  0
  9 25  1  0
 10 26  1  0
 10 27  1  0
 11 28  1  0
 11 29  1  0
 12 30  1  0
 12 31  1  0
 13 32  1  0
 13 33  1  0
 14 34  1  0
 15 35  1  0
 15 36  1  0
M  END
>  <Energy>  (31) 
75.005769816989442

>  <compound_id>  (31) 
1379

>  <target_id>  (31) 
1

>  <reference_id>  (31) 
3

>  <inspiration_ids>  (31) 
[3, 47]

>  <energy_score>  (31) 
-3.1067911059532207

>  <distance_score>  (31) 
2.0841748762992154

>  <path>  (31) 
/opt/xchem-fragalysis-2/maxwin/BulkDock/SCRATCH/505732/C1379-P3/C1379-P3.minimised.mol

>  <scratch_subdir>  (31) 
/opt/xchem-fragalysis-2/maxwin/BulkDock/SCRATCH/505732/C1379-P3

>  <fragmenstein_runtime>  (31) 
4.175117015838623

>  <fragmenstein_outcome>  (31) 
too moved

>  <fragmenstein_mode>  (31) 
expansion

>  <fragmenstein_error>  (31) 


$$$$
C1379-P47
     RDKit          3D

 36 38  0  0  0  0  0  0  0  0999 V2000
  -12.7124  -28.3506   28.9648 O   0  0  0  0  0  0  0  0  0  0  0  0
  -12.0602  -27.1088   28.6872 C   0  0  0  0  0  0  0  0  0  0  0  0
  -11.0931  -27.4109   27.5589 C   0  0  0  0  0  0  0  0  0  0  0  0
  -11.4415  -26.5661   26.3525 C   0  0  0  0  0  0  0  0  0  0  0  0
  -12.8687  -26.1804   26.5980 C   0  0  0  0  0  0  0  0  0  0  0  0
  -13.0029  -26.1586   28.0542 N   0  0  0  0  0  0  0  0  0  0  0  0
  -12.9790  -24.8246   28.5716 N   0  0  0  0  0  0  0  0  0  0  0  0
  -11.9119  -24.4919   29.5119 C   0  0  0  0  0  0  0  0  0  0  0  0
  -10.5513  -24.4952   28.8455 C   0  0  0  0  0  0  0  0  0  0  0  0
  -10.4731  -23.5277   27.7238 C   0  0  0  0  0  0  0  0  0  0  0  0
  -10.9495  -22.1462   28.0562 C   0  0  0  0  0  0  0  0  0  0  0  0
  -12.0912  -22.0661   29.0075 C   0  0  0  0  0  0  0  0  0  0  0  0
  -12.1467  -23.1025   30.1051 C   0  0  0  0  0  0  0  0  0  0  0  0
  -11.9305  -25.4291   30.6068 N   0  0  0  0  0  0  0  0  0  0  0  0
  -11.4276  -26.7002   30.0809 C   0  0  0  0  0  0  0  0  0  0  0  0
  -12.0499  -28.9114   29.3982 H   0  0  0  0  0  0  0  0  0  0  0  0
  -10.0431  -27.2882   27.8279 H   0  0  0  0  0  0  0  0  0  0  0  0
  -11.2729  -28.4406   27.2522 H   0  0  0  0  0  0  0  0  0  0  0  0
  -10.7862  -25.7049   26.2779 H   0  0  0  0  0  0  0  0  0  0  0  0
  -11.3100  -27.1108   25.4131 H   0  0  0  0  0  0  0  0  0  0  0  0
  -13.1391  -25.2471   26.0901 H   0  0  0  0  0  0  0  0  0  0  0  0
  -13.5548  -26.9381   26.2103 H   0  0  0  0  0  0  0  0  0  0  0  0
  -12.9792  -24.1469   27.8115 H   0  0  0  0  0  0  0  0  0  0  0  0
   -9.7769  -24.4138   29.6032 H   0  0  0  0  0  0  0  0  0  0  0  0
  -10.2408  -25.4212   28.3934 H   0  0  0  0  0  0  0  0  0  0  0  0
   -9.4282  -23.5795   27.4244 H   0  0  0  0  0  0  0  0  0  0  0  0
  -11.0540  -23.8536   26.8591 H   0  0  0  0  0  0  0  0  0  0  0  0
  -11.2590  -21.6675   27.1253 H   0  0  0  0  0  0  0  0  0  0  0  0
  -10.1414  -21.5657   28.4650 H   0  0  0  0  0  0  0  0  0  0  0  0
  -12.9413  -22.2224   28.3754 H   0  0  0  0  0  0  0  0  0  0  0  0
  -12.1509  -21.0684   29.4271 H   0  0  0  0  0  0  0  0  0  0  0  0
  -13.1203  -23.0443   30.6105 H   0  0  0  0  0  0  0  0  0  0  0  0
  -11.3913  -22.8679   30.8666 H   0  0  0  0  0  0  0  0  0  0  0  0
  -12.9259  -25.5635   30.8164 H   0  0  0  0  0  0  0  0  0  0  0  0
  -11.6129  -27.4590   30.8432 H   0  0  0  0  0  0  0  0  0  0  0  0
  -10.3317  -26.6868   30.0283 H   0  0  0  0  0  0  0  0  0  0  0  0
  1  2  1  0
  2  3  1  0
  3  4  1  0
  4  5  1  0
  5  6  1  0
  6  7  1  0
  7  8  1  0
  8  9  1  0
  9 10  1  0
 10 11  1  0
 11 12  1  0
 12 13  1  0
  8 14  1  0
 14 15  1  0
  6  2  1  0
 13  8  1  0
 15  2  1  0
  1 16  1  0
  3 17  1  0
  3 18  1  0
  4 19  1  0
  4 20  1  0
  5 21  1  0
  5 22  1  0
  7 23  1  0
  9 24  1  0
  9 25  1  0
 10 26  1  0
 10 27  1  0
 11 28  1  0
 11 29  1  0
 12 30  1  0
 12 31  1  0
 13 32  1  0
 13 33  1  0
 14 34  1  0
 15 35  1  0
 15 36  1  0
M  END
>  <Energy>  (32) 
91.436353135074427

>  <compound_id>  (32) 
1379

>  <target_id>  (32) 
1

>  <reference_id>  (32) 
47

>  <inspiration_ids>  (32) 
[3, 47]

>  <energy_score>  (32) 
13.323792212135373

>  <distance_score>  (32) 
3.1764041005271184

>  <path>  (32) 
/opt/xchem-fragalysis-2/maxwin/BulkDock/SCRATCH/505732/C1379-P47/C1379-P47.minimised.mol

>  <scratch_subdir>  (32) 
/opt/xchem-fragalysis-2/maxwin/BulkDock/SCRATCH/505732/C1379-P47

>  <fragmenstein_runtime>  (32) 
4.903913974761963

>  <fragmenstein_outcome>  (32) 
too moved

>  <fragmenstein_mode>  (32) 
expansion

>  <fragmenstein_error>  (32) 


$$$$
C1381-P3
     RDKit          3D

 45 46  0  0  0  0  0  0  0  0999 V2000
  -11.3237  -19.3117   29.6070 C   0  0  0  0  0  0  0  0  0  0  0  0
  -10.8653  -20.0224   28.3602 C   0  0  0  0  0  0  0  0  0  0  0  0
  -10.5055  -21.4738   28.5232 C   0  0  0  0  0  0  0  0  0  0  0  0
  -11.7614  -22.2917   28.7201 C   0  0  0  0  0  0  0  0  0  0  0  0
  -12.6805  -22.4470   27.5162 C   0  0  0  0  0  0  0  0  0  0  0  0
  -12.0708  -23.5718   26.7343 C   0  0  0  0  0  0  0  0  0  0  0  0
  -11.1963  -22.9505   25.6307 C   0  0  0  0  0  0  0  0  0  0  0  0
  -11.9904  -22.0398   24.7958 N   0  0  0  0  0  0  0  0  0  0  0  0
  -11.2808  -21.5574   23.6152 C   0  0  0  0  0  0  0  0  0  0  0  0
  -11.3707  -24.3773   27.7822 N   0  0  0  0  0  0  0  0  0  0  0  0
  -11.8861  -25.7321   27.8221 N   0  0  0  0  0  0  0  0  0  0  0  0
  -11.5780  -23.7248   29.1156 C   0  0  0  0  0  0  0  0  0  0  0  0
  -10.6382  -23.9358   30.1951 N   0  0  0  0  0  0  0  0  0  0  0  0
  -10.1528  -23.1596   31.2172 C   0  0  0  0  0  0  0  0  0  0  0  0
   -8.9046  -23.4908   31.7266 C   0  0  0  0  0  0  0  0  0  0  0  0
   -8.2886  -22.7186   32.6985 C   0  0  0  0  0  0  0  0  0  0  0  0
   -8.9434  -21.6442   33.2592 C   0  0  0  0  0  0  0  0  0  0  0  0
  -10.1725  -21.2680   32.7812 C   0  0  0  0  0  0  0  0  0  0  0  0
  -10.7300  -22.0051   31.7412 C   0  0  0  0  0  0  0  0  0  0  0  0
  -11.8615  -19.9241   30.3179 H   0  0  0  0  0  0  0  0  0  0  0  0
  -11.9954  -18.5269   29.2784 H   0  0  0  0  0  0  0  0  0  0  0  0
  -10.4985  -18.8483   30.1475 H   0  0  0  0  0  0  0  0  0  0  0  0
  -11.6107  -19.9095   27.5696 H   0  0  0  0  0  0  0  0  0  0  0  0
   -9.9818  -19.4931   28.0428 H   0  0  0  0  0  0  0  0  0  0  0  0
   -9.9163  -21.8222   27.6931 H   0  0  0  0  0  0  0  0  0  0  0  0
   -9.8234  -21.5652   29.3593 H   0  0  0  0  0  0  0  0  0  0  0  0
  -12.2587  -21.7686   29.5053 H   0  0  0  0  0  0  0  0  0  0  0  0
  -13.6655  -22.8363   27.7853 H   0  0  0  0  0  0  0  0  0  0  0  0
  -12.8574  -21.5117   26.9841 H   0  0  0  0  0  0  0  0  0  0  0  0
  -12.8663  -24.1559   26.2496 H   0  0  0  0  0  0  0  0  0  0  0  0
  -10.3660  -22.4077   26.0434 H   0  0  0  0  0  0  0  0  0  0  0  0
  -10.6953  -23.7381   25.0749 H   0  0  0  0  0  0  0  0  0  0  0  0
  -12.8510  -22.4925   24.4934 H   0  0  0  0  0  0  0  0  0  0  0  0
  -10.2039  -21.7446   23.6458 H   0  0  0  0  0  0  0  0  0  0  0  0
  -11.4365  -20.4793   23.5190 H   0  0  0  0  0  0  0  0  0  0  0  0
  -11.6843  -22.0200   22.7111 H   0  0  0  0  0  0  0  0  0  0  0  0
  -11.3589  -26.2970   28.4910 H   0  0  0  0  0  0  0  0  0  0  0  0
  -11.7443  -26.1870   26.9172 H   0  0  0  0  0  0  0  0  0  0  0  0
  -12.5439  -24.0856   29.4969 H   0  0  0  0  0  0  0  0  0  0  0  0
  -10.2498  -24.8688   30.1830 H   0  0  0  0  0  0  0  0  0  0  0  0
   -8.3715  -24.3607   31.3651 H   0  0  0  0  0  0  0  0  0  0  0  0
   -7.3021  -22.9867   33.0545 H   0  0  0  0  0  0  0  0  0  0  0  0
   -8.4694  -21.1070   34.0551 H   0  0  0  0  0  0  0  0  0  0  0  0
  -10.7036  -20.4124   33.1891 H   0  0  0  0  0  0  0  0  0  0  0  0
  -11.6698  -21.6344   31.3859 H   0  0  0  0  0  0  0  0  0  0  0  0
  1  2  1  0
  2  3  1  0
  3  4  1  0
  4  5  1  0
  5  6  1  0
  6  7  1  0
  7  8  1  0
  8  9  1  0
  6 10  1  0
 10 11  1  0
 10 12  1  0
 12 13  1  0
 13 14  1  0
 14 15  2  0
 15 16  1  0
 16 17  2  0
 17 18  1  0
 18 19  2  0
 12  4  1  0
 19 14  1  0
  1 20  1  0
  1 21  1  0
  1 22  1  0
  2 23  1  0
  2 24  1  0
  3 25  1  0
  3 26  1  0
  4 27  1  0
  5 28  1  0
  5 29  1  0
  6 30  1  0
  7 31  1  0
  7 32  1  0
  8 33  1  0
  9 34  1  0
  9 35  1  0
  9 36  1  0
 11 37  1  0
 11 38  1  0
 12 39  1  0
 13 40  1  0
 15 41  1  0
 16 42  1  0
 17 43  1  0
 18 44  1  0
 19 45  1  0
M  END
>  <Energy>  (33) 
103.25832515026235

>  <compound_id>  (33) 
1381

>  <target_id>  (33) 
1

>  <reference_id>  (33) 
3

>  <inspiration_ids>  (33) 
[3, 54]

>  <energy_score>  (33) 
-26.707617233787175

>  <distance_score>  (33) 
1.6078708114597178

>  <path>  (33) 
/opt/xchem-fragalysis-2/maxwin/BulkDock/SCRATCH/505732/C1381-P3/C1381-P3.minimised.mol

>  <scratch_subdir>  (33) 
/opt/xchem-fragalysis-2/maxwin/BulkDock/SCRATCH/505732/C1381-P3

>  <fragmenstein_runtime>  (33) 
4.409105062484741

>  <fragmenstein_outcome>  (33) 
too moved

>  <fragmenstein_mode>  (33) 
expansion

>  <fragmenstein_error>  (33) 


$$$$
C1381-P54
     RDKit          3D

 45 46  0  0  0  0  0  0  0  0999 V2000
  -11.5073  -19.8128   29.7352 C   0  0  0  0  0  0  0  0  0  0  0  0
  -10.8325  -20.5492   28.6105 C   0  0  0  0  0  0  0  0  0  0  0  0
  -10.4580  -21.9449   28.9966 C   0  0  0  0  0  0  0  0  0  0  0  0
  -11.6605  -22.8604   29.2341 C   0  0  0  0  0  0  0  0  0  0  0  0
  -12.5006  -23.1328   28.0332 C   0  0  0  0  0  0  0  0  0  0  0  0
  -11.7940  -24.1580   27.2183 C   0  0  0  0  0  0  0  0  0  0  0  0
  -11.0877  -23.4243   26.0653 C   0  0  0  0  0  0  0  0  0  0  0  0
  -11.8798  -22.4941   25.2623 N   0  0  0  0  0  0  0  0  0  0  0  0
  -13.2748  -22.7934   24.9842 C   0  0  0  0  0  0  0  0  0  0  0  0
  -10.8880  -24.7955   28.2122 N   0  0  0  0  0  0  0  0  0  0  0  0
  -11.0320  -26.2273   28.1982 N   0  0  0  0  0  0  0  0  0  0  0  0
  -11.2273  -24.2526   29.5737 C   0  0  0  0  0  0  0  0  0  0  0  0
  -10.2135  -24.2650   30.5870 N   0  0  0  0  0  0  0  0  0  0  0  0
  -10.0218  -23.5320   31.7290 C   0  0  0  0  0  0  0  0  0  0  0  0
   -8.9714  -23.9405   32.5320 C   0  0  0  0  0  0  0  0  0  0  0  0
   -8.6878  -23.3206   33.7313 C   0  0  0  0  0  0  0  0  0  0  0  0
   -9.5018  -22.3230   34.2220 C   0  0  0  0  0  0  0  0  0  0  0  0
  -10.5429  -21.8621   33.4488 C   0  0  0  0  0  0  0  0  0  0  0  0
  -10.7987  -22.4784   32.2222 C   0  0  0  0  0  0  0  0  0  0  0  0
  -12.3107  -20.3726   30.2131 H   0  0  0  0  0  0  0  0  0  0  0  0
  -10.8142  -19.5058   30.5182 H   0  0  0  0  0  0  0  0  0  0  0  0
  -11.9356  -18.9247   29.2935 H   0  0  0  0  0  0  0  0  0  0  0  0
  -11.4412  -20.5394   27.7094 H   0  0  0  0  0  0  0  0  0  0  0  0
   -9.9231  -20.0182   28.3548 H   0  0  0  0  0  0  0  0  0  0  0  0
   -9.7507  -22.3544   28.2737 H   0  0  0  0  0  0  0  0  0  0  0  0
   -9.8776  -21.8646   29.9092 H   0  0  0  0  0  0  0  0  0  0  0  0
  -12.3383  -22.4468   29.9765 H   0  0  0  0  0  0  0  0  0  0  0  0
  -13.4692  -23.5456   28.3436 H   0  0  0  0  0  0  0  0  0  0  0  0
  -12.6035  -22.2065   27.4932 H   0  0  0  0  0  0  0  0  0  0  0  0
  -12.5215  -24.8656   26.7981 H   0  0  0  0  0  0  0  0  0  0  0  0
  -10.2439  -22.8520   26.4439 H   0  0  0  0  0  0  0  0  0  0  0  0
  -10.6015  -24.1800   25.4494 H   0  0  0  0  0  0  0  0  0  0  0  0
  -11.3822  -22.2319   24.4113 H   0  0  0  0  0  0  0  0  0  0  0  0
  -13.4790  -23.8228   24.6913 H   0  0  0  0  0  0  0  0  0  0  0  0
  -13.9270  -22.5932   25.8332 H   0  0  0  0  0  0  0  0  0  0  0  0
  -13.6193  -22.1444   24.1745 H   0  0  0  0  0  0  0  0  0  0  0  0
  -10.6636  -26.6285   27.3328 H   0  0  0  0  0  0  0  0  0  0  0  0
  -12.0048  -26.5345   28.2687 H   0  0  0  0  0  0  0  0  0  0  0  0
  -12.0919  -24.8079   29.9640 H   0  0  0  0  0  0  0  0  0  0  0  0
   -9.3980  -24.7635   30.2477 H   0  0  0  0  0  0  0  0  0  0  0  0
   -8.3613  -24.7884   32.2450 H   0  0  0  0  0  0  0  0  0  0  0  0
   -7.8267  -23.6560   34.2705 H   0  0  0  0  0  0  0  0  0  0  0  0
   -9.3534  -21.9416   35.2189 H   0  0  0  0  0  0  0  0  0  0  0  0
  -11.1997  -21.0769   33.8149 H   0  0  0  0  0  0  0  0  0  0  0  0
  -11.6692  -22.1100   31.7076 H   0  0  0  0  0  0  0  0  0  0  0  0
  1  2  1  0
  2  3  1  0
  3  4  1  0
  4  5  1  0
  5  6  1  0
  6  7  1  0
  7  8  1  0
  8  9  1  0
  6 10  1  0
 10 11  1  0
 10 12  1  0
 12 13  1  0
 13 14  1  0
 14 15  2  0
 15 16  1  0
 16 17  2  0
 17 18  1  0
 18 19  2  0
 12  4  1  0
 19 14  1  0
  1 20  1  0
  1 21  1  0
  1 22  1  0
  2 23  1  0
  2 24  1  0
  3 25  1  0
  3 26  1  0
  4 27  1  0
  5 28  1  0
  5 29  1  0
  6 30  1  0
  7 31  1  0
  7 32  1  0
  8 33  1  0
  9 34  1  0
  9 35  1  0
  9 36  1  0
 11 37  1  0
 11 38  1  0
 12 39  1  0
 13 40  1  0
 15 41  1  0
 16 42  1  0
 17 43  1  0
 18 44  1  0
 19 45  1  0
M  END
>  <Energy>  (34) 
101.66194609127911

>  <compound_id>  (34) 
1381

>  <target_id>  (34) 
1

>  <reference_id>  (34) 
54

>  <inspiration_ids>  (34) 
[3, 54]

>  <energy_score>  (34) 
-28.303996292771387

>  <distance_score>  (34) 
1.7412319173047954

>  <path>  (34) 
/opt/xchem-fragalysis-2/maxwin/BulkDock/SCRATCH/505732/C1381-P54/C1381-P54.minimised.mol

>  <scratch_subdir>  (34) 
/opt/xchem-fragalysis-2/maxwin/BulkDock/SCRATCH/505732/C1381-P54

>  <fragmenstein_runtime>  (34) 
4.155249118804932

>  <fragmenstein_outcome>  (34) 
too moved

>  <fragmenstein_mode>  (34) 
expansion

>  <fragmenstein_error>  (34) 


$$$$
C942-P3
     RDKit          3D

 51 53  0  0  0  0  0  0  0  0999 V2000
  -14.5537  -26.5947   26.9656 C   0  0  0  0  0  0  0  0  0  0  0  0
  -13.2514  -26.2302   26.2541 C   0  0  0  0  0  0  0  0  0  0  0  0
  -12.1874  -25.5606   27.0237 N   0  0  0  0  0  0  0  0  0  0  0  0
  -11.8514  -26.4479   28.1702 N   0  0  0  0  0  0  0  0  0  0  0  0
  -11.7874  -25.5537   29.3136 C   0  0  0  0  0  0  0  0  0  0  0  0
  -11.9239  -26.1285   30.7130 C   0  0  0  0  0  0  0  0  0  0  0  0
  -11.5398  -25.0654   31.6282 N   0  0  0  0  0  0  0  0  0  0  0  0
  -10.3078  -25.2060   32.3842 C   0  0  0  0  0  0  0  0  0  0  0  0
  -12.8571  -24.5362   28.9711 C   0  0  0  0  0  0  0  0  0  0  0  0
  -12.4917  -24.1773   27.5612 C   0  0  0  0  0  0  0  0  0  0  0  0
  -13.4509  -23.3137   26.7302 C   0  0  0  0  0  0  0  0  0  0  0  0
  -12.5752  -22.6650   25.6660 C   0  0  0  0  0  0  0  0  0  0  0  0
  -11.1621  -23.0792   26.0622 C   0  0  0  0  0  0  0  0  0  0  0  0
  -11.2430  -23.3695   27.5034 N   0  0  0  0  0  0  0  0  0  0  0  0
  -11.1239  -22.0839   28.2382 C   0  0  0  0  0  0  0  0  0  0  0  0
  -11.5719  -21.7672   29.5964 N   0  0  0  0  0  0  0  0  0  0  0  0
  -10.6867  -21.6994   30.6846 C   0  0  0  0  0  0  0  0  0  0  0  0
   -9.5639  -22.5038   30.8415 C   0  0  0  0  0  0  0  0  0  0  0  0
   -8.7941  -22.4651   32.0126 C   0  0  0  0  0  0  0  0  0  0  0  0
   -9.1940  -21.6858   33.0889 C   0  0  0  0  0  0  0  0  0  0  0  0
  -10.3307  -20.9028   32.9720 C   0  0  0  0  0  0  0  0  0  0  0  0
  -11.0439  -20.8887   31.7734 C   0  0  0  0  0  0  0  0  0  0  0  0
  -15.2125  -27.1259   26.2698 H   0  0  0  0  0  0  0  0  0  0  0  0
  -15.0963  -25.7125   27.3140 H   0  0  0  0  0  0  0  0  0  0  0  0
  -14.3815  -27.2579   27.8188 H   0  0  0  0  0  0  0  0  0  0  0  0
  -12.8308  -27.1561   25.8457 H   0  0  0  0  0  0  0  0  0  0  0  0
  -13.4970  -25.6330   25.3713 H   0  0  0  0  0  0  0  0  0  0  0  0
  -10.9341  -26.8720   28.0226 H   0  0  0  0  0  0  0  0  0  0  0  0
  -10.8118  -25.0744   29.2951 H   0  0  0  0  0  0  0  0  0  0  0  0
  -12.9706  -26.3924   30.9047 H   0  0  0  0  0  0  0  0  0  0  0  0
  -11.3632  -27.0544   30.8179 H   0  0  0  0  0  0  0  0  0  0  0  0
  -11.4181  -24.1787   31.1278 H   0  0  0  0  0  0  0  0  0  0  0  0
  -10.1048  -24.3897   33.0787 H   0  0  0  0  0  0  0  0  0  0  0  0
   -9.4657  -25.1404   31.7053 H   0  0  0  0  0  0  0  0  0  0  0  0
  -10.3630  -26.0773   33.0354 H   0  0  0  0  0  0  0  0  0  0  0  0
  -13.8679  -24.9497   29.0612 H   0  0  0  0  0  0  0  0  0  0  0  0
  -12.8072  -23.6924   29.6224 H   0  0  0  0  0  0  0  0  0  0  0  0
  -14.2943  -23.8439   26.2843 H   0  0  0  0  0  0  0  0  0  0  0  0
  -13.8918  -22.5263   27.3336 H   0  0  0  0  0  0  0  0  0  0  0  0
  -12.8579  -22.9704   24.6586 H   0  0  0  0  0  0  0  0  0  0  0  0
  -12.6935  -21.5751   25.6997 H   0  0  0  0  0  0  0  0  0  0  0  0
  -10.4217  -22.3358   25.8049 H   0  0  0  0  0  0  0  0  0  0  0  0
  -10.8307  -23.9791   25.5415 H   0  0  0  0  0  0  0  0  0  0  0  0
  -11.6346  -21.3148   27.6435 H   0  0  0  0  0  0  0  0  0  0  0  0
  -10.0725  -21.7832   28.1619 H   0  0  0  0  0  0  0  0  0  0  0  0
  -12.0242  -20.8461   29.5738 H   0  0  0  0  0  0  0  0  0  0  0  0
   -9.2959  -23.2197   30.0800 H   0  0  0  0  0  0  0  0  0  0  0  0
   -7.9303  -23.1168   32.1189 H   0  0  0  0  0  0  0  0  0  0  0  0
   -8.6365  -21.7278   34.0169 H   0  0  0  0  0  0  0  0  0  0  0  0
  -10.7017  -20.3187   33.8093 H   0  0  0  0  0  0  0  0  0  0  0  0
  -11.9306  -20.2580   31.7270 H   0  0  0  0  0  0  0  0  0  0  0  0
  1  2  1  0
  2  3  1  0
  3  4  1  0
  4  5  1  0
  5  6  1  0
  6  7  1  0
  7  8  1  0
  5  9  1  0
  9 10  1  0
 10 11  1  0
 11 12  1  0
 12 13  1  0
 13 14  1  0
 14 15  1  0
 15 16  1  0
 16 17  1  0
 17 18  2  0
 18 19  1  0
 19 20  2  0
 20 21  1  0
 21 22  2  0
 10  3  1  0
 22 17  1  0
 14 10  1  0
  1 23  1  0
  1 24  1  0
  1 25  1  0
  2 26  1  0
  2 27  1  0
  4 28  1  0
  5 29  1  0
  6 30  1  0
  6 31  1  0
  7 32  1  0
  8 33  1  0
  8 34  1  0
  8 35  1  0
  9 36  1  0
  9 37  1  0
 11 38  1  0
 11 39  1  0
 12 40  1  0
 12 41  1  0
 13 42  1  0
 13 43  1  0
 15 44  1  0
 15 45  1  0
 16 46  1  0
 18 47  1  0
 19 48  1  0
 20 49  1  0
 21 50  1  0
 22 51  1  0
M  END
>  <Energy>  (35) 
43.469430696201577

>  <compound_id>  (35) 
942

>  <target_id>  (35) 
1

>  <reference_id>  (35) 
3

>  <inspiration_ids>  (35) 
[3, 62]

>  <energy_score>  (35) 
-20.053161425958876

>  <distance_score>  (35) 
1.5327025397685632

>  <path>  (35) 
/opt/xchem-fragalysis-2/maxwin/BulkDock/SCRATCH/505732/C942-P3/C942-P3.minimised.mol

>  <scratch_subdir>  (35) 
/opt/xchem-fragalysis-2/maxwin/BulkDock/SCRATCH/505732/C942-P3

>  <fragmenstein_runtime>  (35) 
6.283578395843506

>  <fragmenstein_outcome>  (35) 
too moved

>  <fragmenstein_mode>  (35) 
expansion

>  <fragmenstein_error>  (35) 


$$$$
C942-P62
     RDKit          3D

 51 53  0  0  0  0  0  0  0  0999 V2000
  -14.4037  -25.9508   27.3607 C   0  0  0  0  0  0  0  0  0  0  0  0
  -13.0329  -26.8006   27.4953 C   0  0  0  0  0  0  0  0  0  0  0  0
  -11.7669  -26.4997   28.1194 N   0  0  0  0  0  0  0  0  0  0  0  0
  -11.8326  -27.0046   29.4596 N   0  0  0  0  0  0  0  0  0  0  0  0
  -10.6396  -26.4813   30.0727 C   0  0  0  0  0  0  0  0  0  0  0  0
  -10.8101  -26.3698   31.5842 C   0  0  0  0  0  0  0  0  0  0  0  0
   -9.5975  -26.1104   32.3284 N   0  0  0  0  0  0  0  0  0  0  0  0
   -9.0657  -24.8170   32.0586 C   0  0  0  0  0  0  0  0  0  0  0  0
  -10.3600  -25.2031   29.3160 C   0  0  0  0  0  0  0  0  0  0  0  0
  -11.3189  -25.1246   28.1540 C   0  0  0  0  0  0  0  0  0  0  0  0
  -10.6351  -24.4145   26.9927 C   0  0  0  0  0  0  0  0  0  0  0  0
  -11.5693  -23.3461   26.4790 C   0  0  0  0  0  0  0  0  0  0  0  0
  -12.8293  -23.8618   26.9419 C   0  0  0  0  0  0  0  0  0  0  0  0
  -12.4879  -24.3318   28.2551 N   0  0  0  0  0  0  0  0  0  0  0  0
  -12.7792  -23.7304   29.4895 C   0  0  0  0  0  0  0  0  0  0  0  0
  -12.1815  -22.4971   29.8704 N   0  0  0  0  0  0  0  0  0  0  0  0
  -12.3061  -22.2782   31.2401 C   0  0  0  0  0  0  0  0  0  0  0  0
  -11.4915  -21.3470   31.8075 C   0  0  0  0  0  0  0  0  0  0  0  0
  -11.8966  -20.7397   32.9876 C   0  0  0  0  0  0  0  0  0  0  0  0
  -12.9879  -21.1513   33.7070 C   0  0  0  0  0  0  0  0  0  0  0  0
  -13.7339  -22.1860   33.2125 C   0  0  0  0  0  0  0  0  0  0  0  0
  -13.3987  -22.7341   31.9903 C   0  0  0  0  0  0  0  0  0  0  0  0
  -14.5080  -25.1995   28.1115 H   0  0  0  0  0  0  0  0  0  0  0  0
  -15.3215  -26.5571   27.3928 H   0  0  0  0  0  0  0  0  0  0  0  0
  -14.5533  -25.4431   26.4002 H   0  0  0  0  0  0  0  0  0  0  0  0
  -12.6749  -27.0652   26.5415 H   0  0  0  0  0  0  0  0  0  0  0  0
  -13.2965  -27.7973   27.8255 H   0  0  0  0  0  0  0  0  0  0  0  0
  -12.6618  -26.6389   29.9441 H   0  0  0  0  0  0  0  0  0  0  0  0
   -9.8423  -27.1994   29.8714 H   0  0  0  0  0  0  0  0  0  0  0  0
  -11.6217  -25.7014   31.8876 H   0  0  0  0  0  0  0  0  0  0  0  0
  -11.0551  -27.3722   31.8970 H   0  0  0  0  0  0  0  0  0  0  0  0
   -8.9223  -26.8304   32.0388 H   0  0  0  0  0  0  0  0  0  0  0  0
   -9.5327  -24.0294   32.6456 H   0  0  0  0  0  0  0  0  0  0  0  0
   -9.0960  -24.5728   31.0282 H   0  0  0  0  0  0  0  0  0  0  0  0
   -7.9986  -24.8748   32.2073 H   0  0  0  0  0  0  0  0  0  0  0  0
  -10.5007  -24.3323   29.9352 H   0  0  0  0  0  0  0  0  0  0  0  0
   -9.3189  -25.2298   28.9796 H   0  0  0  0  0  0  0  0  0  0  0  0
   -9.7386  -23.9023   27.3325 H   0  0  0  0  0  0  0  0  0  0  0  0
  -10.3935  -25.1120   26.2012 H   0  0  0  0  0  0  0  0  0  0  0  0
  -11.5928  -23.3102   25.3881 H   0  0  0  0  0  0  0  0  0  0  0  0
  -11.4057  -22.3779   26.9579 H   0  0  0  0  0  0  0  0  0  0  0  0
  -12.9628  -24.6584   26.2128 H   0  0  0  0  0  0  0  0  0  0  0  0
  -13.7205  -23.2946   26.7763 H   0  0  0  0  0  0  0  0  0  0  0  0
  -13.8523  -23.6527   29.6023 H   0  0  0  0  0  0  0  0  0  0  0  0
  -12.5841  -24.4818   30.2624 H   0  0  0  0  0  0  0  0  0  0  0  0
  -11.2711  -22.3493   29.4654 H   0  0  0  0  0  0  0  0  0  0  0  0
  -10.6537  -20.9446   31.2668 H   0  0  0  0  0  0  0  0  0  0  0  0
  -11.3856  -19.8457   33.3410 H   0  0  0  0  0  0  0  0  0  0  0  0
  -13.2650  -20.6072   34.6012 H   0  0  0  0  0  0  0  0  0  0  0  0
  -14.6306  -22.5364   33.7159 H   0  0  0  0  0  0  0  0  0  0  0  0
  -14.0992  -23.4792   31.6189 H   0  0  0  0  0  0  0  0  0  0  0  0
  1  2  1  0
  2  3  1  0
  3  4  1  0
  4  5  1  0
  5  6  1  0
  6  7  1  0
  7  8  1  0
  5  9  1  0
  9 10  1  0
 10 11  1  0
 11 12  1  0
 12 13  1  0
 13 14  1  0
 14 15  1  0
 15 16  1  0
 16 17  1  0
 17 18  2  0
 18 19  1  0
 19 20  2  0
 20 21  1  0
 21 22  2  0
 10  3  1  0
 22 17  1  0
 14 10  1  0
  1 23  1  0
  1 24  1  0
  1 25  1  0
  2 26  1  0
  2 27  1  0
  4 28  1  0
  5 29  1  0
  6 30  1  0
  6 31  1  0
  7 32  1  0
  8 33  1  0
  8 34  1  0
  8 35  1  0
  9 36  1  0
  9 37  1  0
 11 38  1  0
 11 39  1  0
 12 40  1  0
 12 41  1  0
 13 42  1  0
 13 43  1  0
 15 44  1  0
 15 45  1  0
 16 46  1  0
 18 47  1  0
 19 48  1  0
 20 49  1  0
 21 50  1  0
 22 51  1  0
M  END
>  <Energy>  (36) 
111.22479157113995

>  <compound_id>  (36) 
942

>  <target_id>  (36) 
1

>  <reference_id>  (36) 
62

>  <inspiration_ids>  (36) 
[3, 62]

>  <energy_score>  (36) 
47.702199448980764

>  <distance_score>  (36) 
2.2595885919382384

>  <path>  (36) 
/opt/xchem-fragalysis-2/maxwin/BulkDock/SCRATCH/505732/C942-P62/C942-P62.minimised.mol

>  <scratch_subdir>  (36) 
/opt/xchem-fragalysis-2/maxwin/BulkDock/SCRATCH/505732/C942-P62

>  <fragmenstein_runtime>  (36) 
7.371576547622681

>  <fragmenstein_outcome>  (36) 
too moved

>  <fragmenstein_mode>  (36) 
expansion

>  <fragmenstein_error>  (36) 


$$$$
C1382-P3
     RDKit          3D

 45 47  0  0  0  0  0  0  0  0999 V2000
  -12.3291  -25.9786   31.3771 C   0  0  0  0  0  0  0  0  0  0  0  0
  -12.1932  -26.2310   29.9143 C   0  0  0  0  0  0  0  0  0  0  0  0
  -12.5048  -27.5224   29.4848 C   0  0  0  0  0  0  0  0  0  0  0  0
  -12.3755  -27.8075   28.1516 C   0  0  0  0  0  0  0  0  0  0  0  0
  -11.8354  -26.9514   27.2636 N   0  0  0  0  0  0  0  0  0  0  0  0
  -11.5558  -25.7108   27.7134 C   0  0  0  0  0  0  0  0  0  0  0  0
  -11.8518  -25.2441   28.9726 C   0  0  0  0  0  0  0  0  0  0  0  0
  -11.9170  -23.9523   29.3583 O   0  0  0  0  0  0  0  0  0  0  0  0
  -11.7206  -22.6867   28.6691 C   0  0  0  0  0  0  0  0  0  0  0  0
  -10.3690  -22.5138   28.0630 C   0  0  0  0  0  0  0  0  0  0  0  0
  -11.7150  -21.7303   29.7912 N   0  0  0  0  0  0  0  0  0  0  0  0
  -10.8784  -21.7590   30.9122 C   0  0  0  0  0  0  0  0  0  0  0  0
   -9.9871  -22.7910   31.2447 C   0  0  0  0  0  0  0  0  0  0  0  0
   -9.2539  -22.7893   32.4300 C   0  0  0  0  0  0  0  0  0  0  0  0
   -9.4820  -21.8050   33.3730 C   0  0  0  0  0  0  0  0  0  0  0  0
  -10.4158  -20.8117   33.1069 C   0  0  0  0  0  0  0  0  0  0  0  0
  -11.0673  -20.7631   31.8752 C   0  0  0  0  0  0  0  0  0  0  0  0
  -12.6815  -22.3636   27.6005 N   0  0  0  0  0  0  0  0  0  0  0  0
  -13.0879  -23.3642   26.6304 C   0  0  0  0  0  0  0  0  0  0  0  0
  -13.7289  -22.5735   25.5092 C   0  0  0  0  0  0  0  0  0  0  0  0
  -12.7927  -21.3963   25.4086 C   0  0  0  0  0  0  0  0  0  0  0  0
  -12.4388  -21.1153   26.8573 C   0  0  0  0  0  0  0  0  0  0  0  0
  -13.3507  -25.6764   31.6158 H   0  0  0  0  0  0  0  0  0  0  0  0
  -12.1059  -26.8800   31.9594 H   0  0  0  0  0  0  0  0  0  0  0  0
  -11.5969  -25.2336   31.6823 H   0  0  0  0  0  0  0  0  0  0  0  0
  -12.8677  -28.2815   30.1699 H   0  0  0  0  0  0  0  0  0  0  0  0
  -12.6931  -28.7708   27.7680 H   0  0  0  0  0  0  0  0  0  0  0  0
  -11.0875  -25.0936   26.9641 H   0  0  0  0  0  0  0  0  0  0  0  0
   -9.7112  -22.9564   28.7766 H   0  0  0  0  0  0  0  0  0  0  0  0
  -10.0354  -21.4756   27.9985 H   0  0  0  0  0  0  0  0  0  0  0  0
  -10.2742  -22.9734   27.0776 H   0  0  0  0  0  0  0  0  0  0  0  0
  -11.9283  -20.7829   29.4962 H   0  0  0  0  0  0  0  0  0  0  0  0
   -9.8361  -23.6582   30.6152 H   0  0  0  0  0  0  0  0  0  0  0  0
   -8.5496  -23.5932   32.6272 H   0  0  0  0  0  0  0  0  0  0  0  0
   -8.9628  -21.8489   34.3221 H   0  0  0  0  0  0  0  0  0  0  0  0
  -10.6933  -20.0875   33.8653 H   0  0  0  0  0  0  0  0  0  0  0  0
  -11.8112  -19.9838   31.7206 H   0  0  0  0  0  0  0  0  0  0  0  0
  -12.2345  -23.8464   26.1636 H   0  0  0  0  0  0  0  0  0  0  0  0
  -13.7821  -24.1022   27.0401 H   0  0  0  0  0  0  0  0  0  0  0  0
  -13.7724  -23.1365   24.5761 H   0  0  0  0  0  0  0  0  0  0  0  0
  -14.7441  -22.2592   25.7698 H   0  0  0  0  0  0  0  0  0  0  0  0
  -13.2371  -20.5460   24.8934 H   0  0  0  0  0  0  0  0  0  0  0  0
  -11.8945  -21.6905   24.8515 H   0  0  0  0  0  0  0  0  0  0  0  0
  -11.4475  -20.6806   26.9190 H   0  0  0  0  0  0  0  0  0  0  0  0
  -13.0851  -20.3457   27.2589 H   0  0  0  0  0  0  0  0  0  0  0  0
  1  2  1  0
  2  3  2  0
  3  4  1  0
  4  5  2  0
  5  6  1  0
  6  7  2  0
  7  8  1  0
  8  9  1  0
  9 10  1  0
  9 11  1  0
 11 12  1  0
 12 13  2  0
 13 14  1  0
 14 15  2  0
 15 16  1  0
 16 17  2  0
  9 18  1  0
 18 19  1  0
 19 20  1  0
 20 21  1  0
 21 22  1  0
  7  2  1  0
 17 12  1  0
 22 18  1  0
  1 23  1  0
  1 24  1  0
  1 25  1  0
  3 26  1  0
  4 27  1  0
  6 28  1  0
 10 29  1  0
 10 30  1  0
 10 31  1  0
 11 32  1  0
 13 33  1  0
 14 34  1  0
 15 35  1  0
 16 36  1  0
 17 37  1  0
 19 38  1  0
 19 39  1  0
 20 40  1  0
 20 41  1  0
 21 42  1  0
 21 43  1  0
 22 44  1  0
 22 45  1  0
M  END
>  <Energy>  (37) 
32.996727463868893

>  <compound_id>  (37) 
1382

>  <target_id>  (37) 
1

>  <reference_id>  (37) 
3

>  <inspiration_ids>  (37) 
[3, 64]

>  <energy_score>  (37) 
-19.93151737618797

>  <distance_score>  (37) 
1.1928962735913078

>  <path>  (37) 
/opt/xchem-fragalysis-2/maxwin/BulkDock/SCRATCH/505732/C1382-P3/C1382-P3.minimised.mol

>  <scratch_subdir>  (37) 
/opt/xchem-fragalysis-2/maxwin/BulkDock/SCRATCH/505732/C1382-P3

>  <fragmenstein_runtime>  (37) 
8.124485492706299

>  <fragmenstein_outcome>  (37) 
too moved

>  <fragmenstein_mode>  (37) 
expansion

>  <fragmenstein_error>  (37) 


$$$$
C1382-P64
     RDKit          3D

 45 47  0  0  0  0  0  0  0  0999 V2000
   -9.8891  -25.6326   30.0911 C   0  0  0  0  0  0  0  0  0  0  0  0
  -10.2339  -26.0284   28.6987 C   0  0  0  0  0  0  0  0  0  0  0  0
   -9.4325  -26.6495   27.7947 C   0  0  0  0  0  0  0  0  0  0  0  0
   -9.9511  -27.0780   26.5657 C   0  0  0  0  0  0  0  0  0  0  0  0
  -11.2185  -27.1104   26.2239 N   0  0  0  0  0  0  0  0  0  0  0  0
  -11.9620  -26.5436   27.1391 C   0  0  0  0  0  0  0  0  0  0  0  0
  -11.4500  -25.7627   28.1609 C   0  0  0  0  0  0  0  0  0  0  0  0
  -12.1902  -24.7440   28.6543 O   0  0  0  0  0  0  0  0  0  0  0  0
  -12.0897  -23.5818   27.8838 C   0  0  0  0  0  0  0  0  0  0  0  0
  -10.6325  -23.2713   27.6837 C   0  0  0  0  0  0  0  0  0  0  0  0
  -12.5193  -22.4833   28.7940 N   0  0  0  0  0  0  0  0  0  0  0  0
  -12.2487  -22.2626   30.1433 C   0  0  0  0  0  0  0  0  0  0  0  0
  -13.2149  -22.3511   31.1442 C   0  0  0  0  0  0  0  0  0  0  0  0
  -13.0525  -22.1156   32.4993 C   0  0  0  0  0  0  0  0  0  0  0  0
  -11.9345  -21.4636   32.8617 C   0  0  0  0  0  0  0  0  0  0  0  0
  -10.9970  -21.1760   31.8779 C   0  0  0  0  0  0  0  0  0  0  0  0
  -11.1652  -21.5601   30.5511 C   0  0  0  0  0  0  0  0  0  0  0  0
  -12.7294  -23.7422   26.5398 N   0  0  0  0  0  0  0  0  0  0  0  0
  -13.8071  -24.6173   26.1278 C   0  0  0  0  0  0  0  0  0  0  0  0
  -14.5434  -23.8807   25.0138 C   0  0  0  0  0  0  0  0  0  0  0  0
  -13.4996  -22.9816   24.3987 C   0  0  0  0  0  0  0  0  0  0  0  0
  -12.2687  -23.1377   25.3066 C   0  0  0  0  0  0  0  0  0  0  0  0
  -10.6754  -25.0508   30.5789 H   0  0  0  0  0  0  0  0  0  0  0  0
   -9.7213  -26.5208   30.7063 H   0  0  0  0  0  0  0  0  0  0  0  0
   -9.0002  -25.0135   30.1031 H   0  0  0  0  0  0  0  0  0  0  0  0
   -8.4021  -26.8736   27.9691 H   0  0  0  0  0  0  0  0  0  0  0  0
   -9.3179  -27.5940   25.8536 H   0  0  0  0  0  0  0  0  0  0  0  0
  -13.0230  -26.6955   27.0148 H   0  0  0  0  0  0  0  0  0  0  0  0
  -10.0031  -23.5419   28.5178 H   0  0  0  0  0  0  0  0  0  0  0  0
  -10.5794  -22.1923   27.6076 H   0  0  0  0  0  0  0  0  0  0  0  0
  -10.2090  -23.8107   26.8338 H   0  0  0  0  0  0  0  0  0  0  0  0
  -12.2129  -21.6484   28.2985 H   0  0  0  0  0  0  0  0  0  0  0  0
  -14.2472  -22.5345   30.8972 H   0  0  0  0  0  0  0  0  0  0  0  0
  -13.8606  -22.3042   33.1968 H   0  0  0  0  0  0  0  0  0  0  0  0
  -11.9071  -21.0648   33.8666 H   0  0  0  0  0  0  0  0  0  0  0  0
  -10.1707  -20.5170   32.0980 H   0  0  0  0  0  0  0  0  0  0  0  0
  -10.5181  -21.1635   29.7874 H   0  0  0  0  0  0  0  0  0  0  0  0
  -13.4174  -25.4885   25.5962 H   0  0  0  0  0  0  0  0  0  0  0  0
  -14.4827  -24.9667   26.9122 H   0  0  0  0  0  0  0  0  0  0  0  0
  -14.9502  -24.5849   24.2810 H   0  0  0  0  0  0  0  0  0  0  0  0
  -15.3821  -23.2885   25.3885 H   0  0  0  0  0  0  0  0  0  0  0  0
  -13.8844  -21.9589   24.3396 H   0  0  0  0  0  0  0  0  0  0  0  0
  -13.2971  -23.2030   23.3549 H   0  0  0  0  0  0  0  0  0  0  0  0
  -11.5025  -23.7553   24.8291 H   0  0  0  0  0  0  0  0  0  0  0  0
  -11.9067  -22.1398   25.4480 H   0  0  0  0  0  0  0  0  0  0  0  0
  1  2  1  0
  2  3  2  0
  3  4  1  0
  4  5  2  0
  5  6  1  0
  6  7  2  0
  7  8  1  0
  8  9  1  0
  9 10  1  0
  9 11  1  0
 11 12  1  0
 12 13  2  0
 13 14  1  0
 14 15  2  0
 15 16  1  0
 16 17  2  0
  9 18  1  0
 18 19  1  0
 19 20  1  0
 20 21  1  0
 21 22  1  0
  7  2  1  0
 17 12  1  0
 22 18  1  0
  1 23  1  0
  1 24  1  0
  1 25  1  0
  3 26  1  0
  4 27  1  0
  6 28  1  0
 10 29  1  0
 10 30  1  0
 10 31  1  0
 11 32  1  0
 13 33  1  0
 14 34  1  0
 15 35  1  0
 16 36  1  0
 17 37  1  0
 19 38  1  0
 19 39  1  0
 20 40  1  0
 20 41  1  0
 21 42  1  0
 21 43  1  0
 22 44  1  0
 22 45  1  0
M  END
>  <Energy>  (38) 
84.454757475515706

>  <compound_id>  (38) 
1382

>  <target_id>  (38) 
1

>  <reference_id>  (38) 
64

>  <inspiration_ids>  (38) 
[3, 64]

>  <energy_score>  (38) 
31.526512635459568

>  <distance_score>  (38) 
2.4533094858633095

>  <path>  (38) 
/opt/xchem-fragalysis-2/maxwin/BulkDock/SCRATCH/505732/C1382-P64/C1382-P64.minimised.mol

>  <scratch_subdir>  (38) 
/opt/xchem-fragalysis-2/maxwin/BulkDock/SCRATCH/505732/C1382-P64

>  <fragmenstein_runtime>  (38) 
7.498654842376709

>  <fragmenstein_outcome>  (38) 
too moved

>  <fragmenstein_mode>  (38) 
expansion

>  <fragmenstein_error>  (38) 


$$$$
C1384-P3
     RDKit          3D

 49 52  0  0  0  0  0  0  0  0999 V2000
  -12.1440  -28.0874   33.3968 C   0  0  0  0  0  0  0  0  0  0  0  0
  -12.4674  -26.8174   32.6233 C   0  0  0  0  0  0  0  0  0  0  0  0
  -12.4650  -26.9506   31.1894 N   0  0  0  0  0  0  0  0  0  0  0  0
  -12.9003  -28.0654   30.5403 C   0  0  0  0  0  0  0  0  0  0  0  0
  -12.6305  -28.0152   29.2583 N   0  0  0  0  0  0  0  0  0  0  0  0
  -12.0581  -26.8104   29.0666 C   0  0  0  0  0  0  0  0  0  0  0  0
  -12.0435  -26.0916   30.2172 C   0  0  0  0  0  0  0  0  0  0  0  0
  -11.4342  -24.7719   30.2448 C   0  0  0  0  0  0  0  0  0  0  0  0
  -11.6092  -23.8928   28.9029 C   0  0  0  0  0  0  0  0  0  0  0  0
  -10.6253  -22.7600   29.0776 N   0  0  0  0  0  0  0  0  0  0  0  0
  -10.2412  -22.3062   30.3469 C   0  0  0  0  0  0  0  0  0  0  0  0
   -9.1637  -22.8855   31.0315 C   0  0  0  0  0  0  0  0  0  0  0  0
   -8.8655  -22.5547   32.3511 C   0  0  0  0  0  0  0  0  0  0  0  0
   -9.6448  -21.6262   33.0196 C   0  0  0  0  0  0  0  0  0  0  0  0
  -10.6809  -20.9878   32.3485 C   0  0  0  0  0  0  0  0  0  0  0  0
  -10.9727  -21.3261   31.0196 C   0  0  0  0  0  0  0  0  0  0  0  0
  -12.8867  -23.3087   28.4697 N   0  0  0  0  0  0  0  0  0  0  0  0
  -14.0226  -24.1802   28.1383 C   0  0  0  0  0  0  0  0  0  0  0  0
  -14.7195  -23.5466   26.9366 C   0  0  0  0  0  0  0  0  0  0  0  0
  -13.6719  -22.7154   26.2347 C   0  0  0  0  0  0  0  0  0  0  0  0
  -12.6670  -22.3652   27.3131 C   0  0  0  0  0  0  0  0  0  0  0  0
  -11.3402  -24.8390   27.6444 C   0  0  0  0  0  0  0  0  0  0  0  0
  -11.4268  -26.3625   27.8228 C   0  0  0  0  0  0  0  0  0  0  0  0
  -11.1364  -28.4255   33.1523 H   0  0  0  0  0  0  0  0  0  0  0  0
  -12.1824  -27.9210   34.4737 H   0  0  0  0  0  0  0  0  0  0  0  0
  -12.8500  -28.8942   33.1817 H   0  0  0  0  0  0  0  0  0  0  0  0
  -11.7124  -26.0723   32.8679 H   0  0  0  0  0  0  0  0  0  0  0  0
  -13.4691  -26.4739   32.8897 H   0  0  0  0  0  0  0  0  0  0  0  0
  -13.3822  -28.9022   31.0292 H   0  0  0  0  0  0  0  0  0  0  0  0
  -10.3661  -25.0081   30.3224 H   0  0  0  0  0  0  0  0  0  0  0  0
  -11.6272  -24.2411   31.1596 H   0  0  0  0  0  0  0  0  0  0  0  0
   -9.8726  -22.7998   28.4131 H   0  0  0  0  0  0  0  0  0  0  0  0
   -8.5685  -23.6636   30.5716 H   0  0  0  0  0  0  0  0  0  0  0  0
   -8.0365  -23.0439   32.8523 H   0  0  0  0  0  0  0  0  0  0  0  0
   -9.4494  -21.4100   34.0595 H   0  0  0  0  0  0  0  0  0  0  0  0
  -11.2929  -20.2476   32.8604 H   0  0  0  0  0  0  0  0  0  0  0  0
  -11.7883  -20.8150   30.5172 H   0  0  0  0  0  0  0  0  0  0  0  0
  -13.7809  -25.2090   27.8730 H   0  0  0  0  0  0  0  0  0  0  0  0
  -14.7089  -24.2578   28.9888 H   0  0  0  0  0  0  0  0  0  0  0  0
  -15.1429  -24.3039   26.2681 H   0  0  0  0  0  0  0  0  0  0  0  0
  -15.5512  -22.9208   27.2733 H   0  0  0  0  0  0  0  0  0  0  0  0
  -13.1950  -23.3167   25.4540 H   0  0  0  0  0  0  0  0  0  0  0  0
  -14.0934  -21.8344   25.7434 H   0  0  0  0  0  0  0  0  0  0  0  0
  -12.7862  -21.3298   27.6411 H   0  0  0  0  0  0  0  0  0  0  0  0
  -11.6657  -22.4029   26.8663 H   0  0  0  0  0  0  0  0  0  0  0  0
  -10.5297  -24.4891   27.0211 H   0  0  0  0  0  0  0  0  0  0  0  0
  -12.0826  -24.6987   26.8489 H   0  0  0  0  0  0  0  0  0  0  0  0
  -11.9734  -26.7872   26.9721 H   0  0  0  0  0  0  0  0  0  0  0  0
  -10.4338  -26.8093   27.7889 H   0  0  0  0  0  0  0  0  0  0  0  0
  1  2  1  0
  2  3  1  0
  3  4  1  0
  4  5  2  0
  5  6  1  0
  6  7  2  0
  7  8  1  0
  8  9  1  0
  9 10  1  0
 10 11  1  0
 11 12  2  0
 12 13  1  0
 13 14  2  0
 14 15  1  0
 15 16  2  0
  9 17  1  0
 17 18  1  0
 18 19  1  0
 19 20  1  0
 20 21  1  0
  9 22  1  0
 22 23  1  0
  7  3  1  0
 16 11  1  0
 21 17  1  0
 23  6  1  0
  1 24  1  0
  1 25  1  0
  1 26  1  0
  2 27  1  0
  2 28  1  0
  4 29  1  0
  8 30  1  0
  8 31  1  0
 10 32  1  0
 12 33  1  0
 13 34  1  0
 14 35  1  0
 15 36  1  0
 16 37  1  0
 18 38  1  0
 18 39  1  0
 19 40  1  0
 19 41  1  0
 20 42  1  0
 20 43  1  0
 21 44  1  0
 21 45  1  0
 22 46  1  0
 22 47  1  0
 23 48  1  0
 23 49  1  0
M  END
>  <Energy>  (39) 
76.927670337361164

>  <compound_id>  (39) 
1384

>  <target_id>  (39) 
1

>  <reference_id>  (39) 
3

>  <inspiration_ids>  (39) 
[3, 82]

>  <energy_score>  (39) 
23.975708141372166

>  <distance_score>  (39) 
2.72315902377893

>  <path>  (39) 
/opt/xchem-fragalysis-2/maxwin/BulkDock/SCRATCH/505732/C1384-P3/C1384-P3.minimised.mol

>  <scratch_subdir>  (39) 
/opt/xchem-fragalysis-2/maxwin/BulkDock/SCRATCH/505732/C1384-P3

>  <fragmenstein_runtime>  (39) 
16.939974784851074

>  <fragmenstein_outcome>  (39) 
too moved

>  <fragmenstein_mode>  (39) 
expansion

>  <fragmenstein_error>  (39) 


$$$$
C1384-P82
     RDKit          3D

 49 52  0  0  0  0  0  0  0  0999 V2000
   -9.8017  -25.5203   33.6457 C   0  0  0  0  0  0  0  0  0  0  0  0
   -8.7417  -25.3525   32.5650 C   0  0  0  0  0  0  0  0  0  0  0  0
   -9.1213  -25.7154   31.2018 N   0  0  0  0  0  0  0  0  0  0  0  0
   -9.5935  -26.9908   30.9763 C   0  0  0  0  0  0  0  0  0  0  0  0
  -10.8881  -26.9261   31.0904 N   0  0  0  0  0  0  0  0  0  0  0  0
  -11.0488  -25.6011   31.3075 C   0  0  0  0  0  0  0  0  0  0  0  0
  -10.0810  -24.9734   30.5806 C   0  0  0  0  0  0  0  0  0  0  0  0
  -10.4668  -24.5999   29.2031 C   0  0  0  0  0  0  0  0  0  0  0  0
  -11.8856  -23.8438   29.2592 C   0  0  0  0  0  0  0  0  0  0  0  0
  -11.7406  -22.4206   29.8156 N   0  0  0  0  0  0  0  0  0  0  0  0
  -12.3030  -22.0228   31.0591 C   0  0  0  0  0  0  0  0  0  0  0  0
  -11.5109  -21.3959   32.0206 C   0  0  0  0  0  0  0  0  0  0  0  0
  -12.0292  -20.9588   33.2497 C   0  0  0  0  0  0  0  0  0  0  0  0
  -13.3541  -21.1632   33.5802 C   0  0  0  0  0  0  0  0  0  0  0  0
  -14.1783  -21.7788   32.6701 C   0  0  0  0  0  0  0  0  0  0  0  0
  -13.6608  -22.1367   31.4206 C   0  0  0  0  0  0  0  0  0  0  0  0
  -12.4562  -23.9546   27.8779 N   0  0  0  0  0  0  0  0  0  0  0  0
  -12.7123  -25.3030   27.3447 C   0  0  0  0  0  0  0  0  0  0  0  0
  -12.5585  -25.2098   25.8365 C   0  0  0  0  0  0  0  0  0  0  0  0
  -12.4176  -23.7296   25.5754 C   0  0  0  0  0  0  0  0  0  0  0  0
  -11.7463  -23.2398   26.8423 C   0  0  0  0  0  0  0  0  0  0  0  0
  -12.7543  -24.6687   30.2374 C   0  0  0  0  0  0  0  0  0  0  0  0
  -12.2172  -24.8750   31.6200 C   0  0  0  0  0  0  0  0  0  0  0  0
   -9.2706  -25.4767   34.5831 H   0  0  0  0  0  0  0  0  0  0  0  0
  -10.3869  -26.4382   33.6327 H   0  0  0  0  0  0  0  0  0  0  0  0
  -10.5322  -24.7093   33.6250 H   0  0  0  0  0  0  0  0  0  0  0  0
   -8.5370  -24.2886   32.5550 H   0  0  0  0  0  0  0  0  0  0  0  0
   -7.8336  -25.8950   32.8030 H   0  0  0  0  0  0  0  0  0  0  0  0
   -8.9674  -27.8657   30.9288 H   0  0  0  0  0  0  0  0  0  0  0  0
  -10.5570  -25.5626   28.6877 H   0  0  0  0  0  0  0  0  0  0  0  0
   -9.7538  -24.1140   28.5582 H   0  0  0  0  0  0  0  0  0  0  0  0
  -12.1854  -21.8456   29.1036 H   0  0  0  0  0  0  0  0  0  0  0  0
  -10.4889  -21.1285   31.8150 H   0  0  0  0  0  0  0  0  0  0  0  0
  -11.4259  -20.3460   33.9073 H   0  0  0  0  0  0  0  0  0  0  0  0
  -13.7550  -20.7393   34.4882 H   0  0  0  0  0  0  0  0  0  0  0  0
  -15.2322  -21.9329   32.8833 H   0  0  0  0  0  0  0  0  0  0  0  0
  -14.4046  -22.5064   30.7393 H   0  0  0  0  0  0  0  0  0  0  0  0
  -12.0701  -26.1097   27.7016 H   0  0  0  0  0  0  0  0  0  0  0  0
  -13.7287  -25.6115   27.5723 H   0  0  0  0  0  0  0  0  0  0  0  0
  -11.6496  -25.7348   25.5197 H   0  0  0  0  0  0  0  0  0  0  0  0
  -13.4117  -25.6433   25.3059 H   0  0  0  0  0  0  0  0  0  0  0  0
  -13.4141  -23.3043   25.4395 H   0  0  0  0  0  0  0  0  0  0  0  0
  -11.8294  -23.5150   24.6807 H   0  0  0  0  0  0  0  0  0  0  0  0
  -11.8044  -22.1577   26.9558 H   0  0  0  0  0  0  0  0  0  0  0  0
  -10.7037  -23.5547   26.8137 H   0  0  0  0  0  0  0  0  0  0  0  0
  -13.7102  -24.2727   30.4435 H   0  0  0  0  0  0  0  0  0  0  0  0
  -12.8548  -25.6389   29.7659 H   0  0  0  0  0  0  0  0  0  0  0  0
  -12.8271  -25.3408   32.3679 H   0  0  0  0  0  0  0  0  0  0  0  0
  -11.9180  -23.9778   32.1488 H   0  0  0  0  0  0  0  0  0  0  0  0
  1  2  1  0
  2  3  1  0
  3  4  1  0
  4  5  2  0
  5  6  1  0
  6  7  2  0
  7  8  1  0
  8  9  1  0
  9 10  1  0
 10 11  1  0
 11 12  2  0
 12 13  1  0
 13 14  2  0
 14 15  1  0
 15 16  2  0
  9 17  1  0
 17 18  1  0
 18 19  1  0
 19 20  1  0
 20 21  1  0
  9 22  1  0
 22 23  1  0
  7  3  1  0
 16 11  1  0
 21 17  1  0
 23  6  1  0
  1 24  1  0
  1 25  1  0
  1 26  1  0
  2 27  1  0
  2 28  1  0
  4 29  1  0
  8 30  1  0
  8 31  1  0
 10 32  1  0
 12 33  1  0
 13 34  1  0
 14 35  1  0
 15 36  1  0
 16 37  1  0
 18 38  1  0
 18 39  1  0
 19 40  1  0
 19 41  1  0
 20 42  1  0
 20 43  1  0
 21 44  1  0
 21 45  1  0
 22 46  1  0
 22 47  1  0
 23 48  1  0
 23 49  1  0
M  END
>  <Energy>  (40) 
154.02554648660677

>  <compound_id>  (40) 
1384

>  <target_id>  (40) 
1

>  <reference_id>  (40) 
82

>  <inspiration_ids>  (40) 
[3, 82]

>  <energy_score>  (40) 
89.14612685852455

>  <distance_score>  (40) 
2.43705928252519

>  <path>  (40) 
/opt/xchem-fragalysis-2/maxwin/BulkDock/SCRATCH/505732/C1384-P82/C1384-P82.minimised.mol

>  <scratch_subdir>  (40) 
/opt/xchem-fragalysis-2/maxwin/BulkDock/SCRATCH/505732/C1384-P82

>  <fragmenstein_runtime>  (40) 
16.188016414642334

>  <fragmenstein_outcome>  (40) 
too moved

>  <fragmenstein_mode>  (40) 
expansion

>  <fragmenstein_error>  (40) 


$$$$
C1381-P3
     RDKit          3D

 45 46  0  0  0  0  0  0  0  0999 V2000
  -16.4167  -25.7826   28.2882 C   0  0  0  0  0  0  0  0  0  0  0  0
  -15.5596  -26.0326   29.5171 C   0  0  0  0  0  0  0  0  0  0  0  0
  -14.0455  -25.9842   29.2634 C   0  0  0  0  0  0  0  0  0  0  0  0
  -13.5186  -24.5902   28.8255 C   0  0  0  0  0  0  0  0  0  0  0  0
  -13.6121  -24.3758   27.3026 C   0  0  0  0  0  0  0  0  0  0  0  0
  -12.1769  -24.1600   26.8407 C   0  0  0  0  0  0  0  0  0  0  0  0
  -11.8041  -22.6850   26.4897 C   0  0  0  0  0  0  0  0  0  0  0  0
  -12.3890  -21.7221   27.4216 N   0  0  0  0  0  0  0  0  0  0  0  0
  -11.7159  -20.4435   27.4287 C   0  0  0  0  0  0  0  0  0  0  0  0
  -11.3565  -24.7387   27.9339 N   0  0  0  0  0  0  0  0  0  0  0  0
  -11.3424  -26.1964   27.8109 N   0  0  0  0  0  0  0  0  0  0  0  0
  -12.0169  -24.3585   29.1865 C   0  0  0  0  0  0  0  0  0  0  0  0
  -11.8044  -23.0166   29.7305 N   0  0  0  0  0  0  0  0  0  0  0  0
  -10.8180  -22.6752   30.6586 C   0  0  0  0  0  0  0  0  0  0  0  0
   -9.8234  -23.5412   31.1035 C   0  0  0  0  0  0  0  0  0  0  0  0
   -8.9761  -23.1941   32.1586 C   0  0  0  0  0  0  0  0  0  0  0  0
   -9.1486  -21.9941   32.8375 C   0  0  0  0  0  0  0  0  0  0  0  0
  -10.1274  -21.1092   32.4109 C   0  0  0  0  0  0  0  0  0  0  0  0
  -10.9170  -21.4289   31.3017 C   0  0  0  0  0  0  0  0  0  0  0  0
  -16.1460  -26.4609   27.4732 H   0  0  0  0  0  0  0  0  0  0  0  0
  -17.4720  -25.9487   28.5280 H   0  0  0  0  0  0  0  0  0  0  0  0
  -16.3202  -24.7520   27.9358 H   0  0  0  0  0  0  0  0  0  0  0  0
  -15.8069  -27.0246   29.9145 H   0  0  0  0  0  0  0  0  0  0  0  0
  -15.8264  -25.3099   30.2975 H   0  0  0  0  0  0  0  0  0  0  0  0
  -13.5652  -26.2664   30.2088 H   0  0  0  0  0  0  0  0  0  0  0  0
  -13.7845  -26.7603   28.5358 H   0  0  0  0  0  0  0  0  0  0  0  0
  -14.1721  -23.8910   29.3226 H   0  0  0  0  0  0  0  0  0  0  0  0
  -14.2757  -23.5428   27.0521 H   0  0  0  0  0  0  0  0  0  0  0  0
  -14.0254  -25.2612   26.8054 H   0  0  0  0  0  0  0  0  0  0  0  0
  -11.9968  -24.7418   25.9380 H   0  0  0  0  0  0  0  0  0  0  0  0
  -10.7110  -22.6066   26.4729 H   0  0  0  0  0  0  0  0  0  0  0  0
  -12.1566  -22.4575   25.4762 H   0  0  0  0  0  0  0  0  0  0  0  0
  -13.3563  -21.5749   27.1398 H   0  0  0  0  0  0  0  0  0  0  0  0
  -12.2010  -19.7703   28.1371 H   0  0  0  0  0  0  0  0  0  0  0  0
  -10.6851  -20.5474   27.7689 H   0  0  0  0  0  0  0  0  0  0  0  0
  -11.7755  -20.0028   26.4367 H   0  0  0  0  0  0  0  0  0  0  0  0
  -10.7741  -26.6205   28.5424 H   0  0  0  0  0  0  0  0  0  0  0  0
  -10.9168  -26.4667   26.9246 H   0  0  0  0  0  0  0  0  0  0  0  0
  -11.7487  -25.0638   29.9831 H   0  0  0  0  0  0  0  0  0  0  0  0
  -11.8633  -22.3201   28.9764 H   0  0  0  0  0  0  0  0  0  0  0  0
   -9.6849  -24.5123   30.6487 H   0  0  0  0  0  0  0  0  0  0  0  0
   -8.1968  -23.8873   32.4635 H   0  0  0  0  0  0  0  0  0  0  0  0
   -8.5185  -21.7582   33.6871 H   0  0  0  0  0  0  0  0  0  0  0  0
  -10.2954  -20.1713   32.9298 H   0  0  0  0  0  0  0  0  0  0  0  0
  -11.6856  -20.7188   31.0007 H   0  0  0  0  0  0  0  0  0  0  0  0
  1  2  1  0
  2  3  1  0
  3  4  1  0
  4  5  1  0
  5  6  1  0
  6  7  1  0
  7  8  1  0
  8  9  1  0
  6 10  1  0
 10 11  1  0
 10 12  1  0
 12 13  1  0
 13 14  1  0
 14 15  2  0
 15 16  1  0
 16 17  2  0
 17 18  1  0
 18 19  2  0
 12  4  1  0
 19 14  1  0
  1 20  1  0
  1 21  1  0
  1 22  1  0
  2 23  1  0
  2 24  1  0
  3 25  1  0
  3 26  1  0
  4 27  1  0
  5 28  1  0
  5 29  1  0
  6 30  1  0
  7 31  1  0
  7 32  1  0
  8 33  1  0
  9 34  1  0
  9 35  1  0
  9 36  1  0
 11 37  1  0
 11 38  1  0
 12 39  1  0
 13 40  1  0
 15 41  1  0
 16 42  1  0
 17 43  1  0
 18 44  1  0
 19 45  1  0
M  END
>  <Energy>  (41) 
82.135047473178616

>  <compound_id>  (41) 
1381

>  <target_id>  (41) 
1

>  <reference_id>  (41) 
3

>  <inspiration_ids>  (41) 
[3, 94]

>  <energy_score>  (41) 
-47.83089491087145

>  <distance_score>  (41) 
1.5444957753814237

>  <path>  (41) 
/opt/xchem-fragalysis-2/maxwin/BulkDock/SCRATCH/505732/C1381-P3/C1381-P3.minimised.mol

>  <scratch_subdir>  (41) 
/opt/xchem-fragalysis-2/maxwin/BulkDock/SCRATCH/505732/C1381-P3

>  <fragmenstein_runtime>  (41) 
8.579968214035034

>  <fragmenstein_outcome>  (41) 
too moved

>  <fragmenstein_mode>  (41) 
expansion

>  <fragmenstein_error>  (41) 


$$$$
C1381-P94
     RDKit          3D

 45 46  0  0  0  0  0  0  0  0999 V2000
   -7.6099  -22.8012   27.3643 C   0  0  0  0  0  0  0  0  0  0  0  0
   -9.1350  -23.5694   27.7020 C   0  0  0  0  0  0  0  0  0  0  0  0
   -9.5259  -25.0135   28.0172 C   0  0  0  0  0  0  0  0  0  0  0  0
  -10.7838  -25.0741   28.8148 C   0  0  0  0  0  0  0  0  0  0  0  0
  -11.8150  -23.9885   28.6670 C   0  0  0  0  0  0  0  0  0  0  0  0
  -11.5865  -22.9992   29.7997 C   0  0  0  0  0  0  0  0  0  0  0  0
  -12.7070  -22.1140   30.2632 C   0  0  0  0  0  0  0  0  0  0  0  0
  -13.4486  -22.0677   31.5318 N   0  0  0  0  0  0  0  0  0  0  0  0
  -12.8558  -21.5621   32.7499 C   0  0  0  0  0  0  0  0  0  0  0  0
  -11.1752  -23.8892   30.8274 N   0  0  0  0  0  0  0  0  0  0  0  0
  -10.5563  -23.0964   31.8713 N   0  0  0  0  0  0  0  0  0  0  0  0
  -10.3115  -24.9444   30.2237 C   0  0  0  0  0  0  0  0  0  0  0  0
  -10.1442  -26.2981   30.6982 N   0  0  0  0  0  0  0  0  0  0  0  0
  -10.1894  -26.0360   32.0665 C   0  0  0  0  0  0  0  0  0  0  0  0
   -9.0842  -25.5820   32.7449 C   0  0  0  0  0  0  0  0  0  0  0  0
   -9.2900  -25.3510   34.0688 C   0  0  0  0  0  0  0  0  0  0  0  0
  -10.5786  -25.2274   34.5667 C   0  0  0  0  0  0  0  0  0  0  0  0
  -11.6366  -25.1458   33.7455 C   0  0  0  0  0  0  0  0  0  0  0  0
  -11.4481  -25.7994   32.5738 C   0  0  0  0  0  0  0  0  0  0  0  0
   -7.3394  -23.0041   26.3319 H   0  0  0  0  0  0  0  0  0  0  0  0
   -6.6336  -23.0341   27.7893 H   0  0  0  0  0  0  0  0  0  0  0  0
   -7.6731  -21.7359   27.5153 H   0  0  0  0  0  0  0  0  0  0  0  0
   -9.6561  -22.8303   28.2727 H   0  0  0  0  0  0  0  0  0  0  0  0
   -9.7195  -23.5988   26.7795 H   0  0  0  0  0  0  0  0  0  0  0  0
   -9.8008  -25.5571   27.1135 H   0  0  0  0  0  0  0  0  0  0  0  0
   -8.7467  -25.6026   28.5084 H   0  0  0  0  0  0  0  0  0  0  0  0
  -11.2703  -26.0394   28.6074 H   0  0  0  0  0  0  0  0  0  0  0  0
  -11.8881  -23.5387   27.6738 H   0  0  0  0  0  0  0  0  0  0  0  0
  -12.7023  -24.5638   28.8696 H   0  0  0  0  0  0  0  0  0  0  0  0
  -10.8464  -22.2646   29.4970 H   0  0  0  0  0  0  0  0  0  0  0  0
  -12.4331  -21.1328   29.8890 H   0  0  0  0  0  0  0  0  0  0  0  0
  -13.4668  -22.4661   29.6280 H   0  0  0  0  0  0  0  0  0  0  0  0
  -13.7840  -23.0256   31.7328 H   0  0  0  0  0  0  0  0  0  0  0  0
  -12.6788  -22.3613   33.4738 H   0  0  0  0  0  0  0  0  0  0  0  0
  -11.9386  -20.9894   32.5938 H   0  0  0  0  0  0  0  0  0  0  0  0
  -13.5843  -20.9197   33.2550 H   0  0  0  0  0  0  0  0  0  0  0  0
   -9.7367  -23.5611   32.2561 H   0  0  0  0  0  0  0  0  0  0  0  0
  -11.1692  -23.1211   32.6814 H   0  0  0  0  0  0  0  0  0  0  0  0
   -9.2790  -24.6147   30.2456 H   0  0  0  0  0  0  0  0  0  0  0  0
  -10.9451  -26.8726   30.4655 H   0  0  0  0  0  0  0  0  0  0  0  0
   -8.0970  -25.6397   32.3127 H   0  0  0  0  0  0  0  0  0  0  0  0
   -8.4670  -25.2952   34.7656 H   0  0  0  0  0  0  0  0  0  0  0  0
  -10.7232  -24.9955   35.6007 H   0  0  0  0  0  0  0  0  0  0  0  0
  -12.6178  -24.8143   34.0555 H   0  0  0  0  0  0  0  0  0  0  0  0
  -12.2789  -25.9773   31.9313 H   0  0  0  0  0  0  0  0  0  0  0  0
  1  2  1  0
  2  3  1  0
  3  4  1  0
  4  5  1  0
  5  6  1  0
  6  7  1  0
  7  8  1  0
  8  9  1  0
  6 10  1  0
 10 11  1  0
 10 12  1  0
 12 13  1  0
 13 14  1  0
 14 15  2  0
 15 16  1  0
 16 17  2  0
 17 18  1  0
 18 19  2  0
 12  4  1  0
 19 14  1  0
  1 20  1  0
  1 21  1  0
  1 22  1  0
  2 23  1  0
  2 24  1  0
  3 25  1  0
  3 26  1  0
  4 27  1  0
  5 28  1  0
  5 29  1  0
  6 30  1  0
  7 31  1  0
  7 32  1  0
  8 33  1  0
  9 34  1  0
  9 35  1  0
  9 36  1  0
 11 37  1  0
 11 38  1  0
 12 39  1  0
 13 40  1  0
 15 41  1  0
 16 42  1  0
 17 43  1  0
 18 44  1  0
 19 45  1  0
M  END
>  <Energy>  (42) 
213.77583758923009

>  <compound_id>  (42) 
1381

>  <target_id>  (42) 
1

>  <reference_id>  (42) 
94

>  <inspiration_ids>  (42) 
[3, 94]

>  <energy_score>  (42) 
96.77070824871794

>  <distance_score>  (42) 
3.517314261073237

>  <path>  (42) 
/opt/xchem-fragalysis-2/maxwin/BulkDock/SCRATCH/505732/C1381-P94/C1381-P94.minimised.mol

>  <scratch_subdir>  (42) 
/opt/xchem-fragalysis-2/maxwin/BulkDock/SCRATCH/505732/C1381-P94

>  <fragmenstein_runtime>  (42) 
9.91040563583374

>  <fragmenstein_outcome>  (42) 
too moved

>  <fragmenstein_mode>  (42) 
expansion

>  <fragmenstein_error>  (42) 


$$$$
C1386-P3
     RDKit          3D

 51 52  0  0  0  0  0  0  0  0999 V2000
  -14.6490  -22.9144   25.6056 C   0  0  0  0  0  0  0  0  0  0  0  0
  -13.5912  -21.9738   25.0657 C   0  0  0  0  0  0  0  0  0  0  0  0
  -12.8937  -22.6057   24.0931 F   0  0  0  0  0  0  0  0  0  0  0  0
  -12.6263  -21.4294   26.0884 C   0  0  0  0  0  0  0  0  0  0  0  0
  -11.6677  -22.4500   26.6863 C   0  0  0  0  0  0  0  0  0  0  0  0
  -12.3588  -23.6787   27.2680 C   0  0  0  0  0  0  0  0  0  0  0  0
  -11.5371  -24.3854   28.3112 C   0  0  0  0  0  0  0  0  0  0  0  0
  -10.8908  -23.3952   29.3259 C   0  0  0  0  0  0  0  0  0  0  0  0
  -11.1962  -23.8692   30.7202 C   0  0  0  0  0  0  0  0  0  0  0  0
  -10.2927  -24.8947   31.3204 C   0  0  0  0  0  0  0  0  0  0  0  0
   -9.2277  -24.4348   32.2899 C   0  0  0  0  0  0  0  0  0  0  0  0
   -9.7991  -23.7575   33.3690 O   0  0  0  0  0  0  0  0  0  0  0  0
   -8.1948  -23.6499   31.6688 N   0  0  0  0  0  0  0  0  0  0  0  0
   -7.4879  -22.8870   32.6984 N   0  0  0  0  0  0  0  0  0  0  0  0
  -11.2613  -21.9594   28.9970 C   0  0  0  0  0  0  0  0  0  0  0  0
  -10.5213  -20.9715   29.7189 N   0  0  0  0  0  0  0  0  0  0  0  0
  -10.7926  -20.6287   31.0395 C   0  0  0  0  0  0  0  0  0  0  0  0
  -10.0441  -21.1229   32.0818 C   0  0  0  0  0  0  0  0  0  0  0  0
  -10.3374  -20.9266   33.4198 C   0  0  0  0  0  0  0  0  0  0  0  0
  -11.3441  -20.0591   33.7515 C   0  0  0  0  0  0  0  0  0  0  0  0
  -11.9703  -19.3643   32.7345 C   0  0  0  0  0  0  0  0  0  0  0  0
  -11.6957  -19.6714   31.3975 C   0  0  0  0  0  0  0  0  0  0  0  0
  -10.8874  -21.7486   27.6466 O   0  0  0  0  0  0  0  0  0  0  0  0
  -15.5838  -22.7330   25.0645 H   0  0  0  0  0  0  0  0  0  0  0  0
  -14.4003  -23.9650   25.4407 H   0  0  0  0  0  0  0  0  0  0  0  0
  -14.9013  -22.7413   26.6518 H   0  0  0  0  0  0  0  0  0  0  0  0
  -14.0953  -21.1290   24.5892 H   0  0  0  0  0  0  0  0  0  0  0  0
  -13.1607  -20.9190   26.8908 H   0  0  0  0  0  0  0  0  0  0  0  0
  -12.0410  -20.6396   25.6071 H   0  0  0  0  0  0  0  0  0  0  0  0
  -10.9714  -22.7799   25.9059 H   0  0  0  0  0  0  0  0  0  0  0  0
  -12.6070  -24.3910   26.4758 H   0  0  0  0  0  0  0  0  0  0  0  0
  -13.2899  -23.3971   27.7648 H   0  0  0  0  0  0  0  0  0  0  0  0
  -10.8362  -25.0192   27.7799 H   0  0  0  0  0  0  0  0  0  0  0  0
  -12.1928  -25.1178   28.7988 H   0  0  0  0  0  0  0  0  0  0  0  0
   -9.8172  -23.3783   29.2649 H   0  0  0  0  0  0  0  0  0  0  0  0
  -12.1233  -24.4279   30.6112 H   0  0  0  0  0  0  0  0  0  0  0  0
  -11.3187  -23.0555   31.4119 H   0  0  0  0  0  0  0  0  0  0  0  0
  -10.9463  -25.5832   31.8739 H   0  0  0  0  0  0  0  0  0  0  0  0
   -9.8921  -25.4246   30.4740 H   0  0  0  0  0  0  0  0  0  0  0  0
   -8.7702  -25.2841   32.7598 H   0  0  0  0  0  0  0  0  0  0  0  0
   -8.9877  -23.4347   33.8082 H   0  0  0  0  0  0  0  0  0  0  0  0
   -8.5780  -23.0665   30.9276 H   0  0  0  0  0  0  0  0  0  0  0  0
   -7.0805  -23.5704   33.3548 H   0  0  0  0  0  0  0  0  0  0  0  0
   -6.6328  -22.4898   32.2925 H   0  0  0  0  0  0  0  0  0  0  0  0
  -12.3058  -21.7478   29.0874 H   0  0  0  0  0  0  0  0  0  0  0  0
  -10.5803  -20.1230   29.1517 H   0  0  0  0  0  0  0  0  0  0  0  0
   -9.1444  -21.6265   31.8432 H   0  0  0  0  0  0  0  0  0  0  0  0
   -9.7646  -21.4296   34.1845 H   0  0  0  0  0  0  0  0  0  0  0  0
  -11.6122  -19.8835   34.7851 H   0  0  0  0  0  0  0  0  0  0  0  0
  -12.7272  -18.6271   32.9795 H   0  0  0  0  0  0  0  0  0  0  0  0
  -12.1557  -19.1267   30.5981 H   0  0  0  0  0  0  0  0  0  0  0  0
  1  2  1  0
  2  3  1  0
  2  4  1  0
  4  5  1  0
  5  6  1  0
  6  7  1  0
  7  8  1  0
  8  9  1  0
  9 10  1  0
 10 11  1  0
 11 12  1  0
 11 13  1  0
 13 14  1  0
  8 15  1  0
 15 16  1  0
 16 17  1  0
 17 18  2  0
 18 19  1  0
 19 20  2  0
 20 21  1  0
 21 22  2  0
 15 23  1  0
 23  5  1  0
 22 17  1  0
  1 24  1  0
  1 25  1  0
  1 26  1  0
  2 27  1  0
  4 28  1  0
  4 29  1  0
  5 30  1  0
  6 31  1  0
  6 32  1  0
  7 33  1  0
  7 34  1  0
  8 35  1  0
  9 36  1  0
  9 37  1  0
 10 38  1  0
 10 39  1  0
 11 40  1  0
 12 41  1  0
 13 42  1  0
 14 43  1  0
 14 44  1  0
 15 45  1  0
 16 46  1  0
 18 47  1  0
 19 48  1  0
 20 49  1  0
 21 50  1  0
 22 51  1  0
M  END
>  <Energy>  (43) 
79.365215069409302

>  <compound_id>  (43) 
1386

>  <target_id>  (43) 
1

>  <reference_id>  (43) 
3

>  <inspiration_ids>  (43) 
[3, 96]

>  <energy_score>  (43) 
1.3089242643235366

>  <distance_score>  (43) 
1.8616532276800608

>  <path>  (43) 
/opt/xchem-fragalysis-2/maxwin/BulkDock/SCRATCH/505732/C1386-P3/C1386-P3.minimised.mol

>  <scratch_subdir>  (43) 
/opt/xchem-fragalysis-2/maxwin/BulkDock/SCRATCH/505732/C1386-P3

>  <fragmenstein_runtime>  (43) 
5.284984588623047

>  <fragmenstein_outcome>  (43) 
too moved

>  <fragmenstein_mode>  (43) 
expansion

>  <fragmenstein_error>  (43) 


$$$$
C1386-P96
     RDKit          3D

 51 52  0  0  0  0  0  0  0  0999 V2000
  -13.6432  -25.1245   27.2132 C   0  0  0  0  0  0  0  0  0  0  0  0
  -12.7458  -24.6937   26.0904 C   0  0  0  0  0  0  0  0  0  0  0  0
  -11.7073  -25.5659   26.0215 F   0  0  0  0  0  0  0  0  0  0  0  0
  -12.2012  -23.2748   26.0762 C   0  0  0  0  0  0  0  0  0  0  0  0
  -11.4226  -22.8498   27.3318 C   0  0  0  0  0  0  0  0  0  0  0  0
  -10.1934  -23.7231   27.5213 C   0  0  0  0  0  0  0  0  0  0  0  0
  -10.3046  -24.6957   28.6758 C   0  0  0  0  0  0  0  0  0  0  0  0
  -10.5956  -23.8954   29.9374 C   0  0  0  0  0  0  0  0  0  0  0  0
  -10.9553  -24.7618   31.1579 C   0  0  0  0  0  0  0  0  0  0  0  0
   -9.8916  -25.7449   31.6048 C   0  0  0  0  0  0  0  0  0  0  0  0
   -8.8259  -25.3123   32.5943 C   0  0  0  0  0  0  0  0  0  0  0  0
   -9.3422  -24.8013   33.7893 O   0  0  0  0  0  0  0  0  0  0  0  0
   -8.0005  -24.2770   32.0462 N   0  0  0  0  0  0  0  0  0  0  0  0
   -7.2102  -23.7319   33.0955 N   0  0  0  0  0  0  0  0  0  0  0  0
  -11.7157  -22.8655   29.7211 C   0  0  0  0  0  0  0  0  0  0  0  0
  -11.2448  -21.5126   30.0107 N   0  0  0  0  0  0  0  0  0  0  0  0
  -11.4240  -21.2864   31.3958 C   0  0  0  0  0  0  0  0  0  0  0  0
  -10.4483  -21.7131   32.2855 C   0  0  0  0  0  0  0  0  0  0  0  0
  -10.7460  -21.8881   33.6176 C   0  0  0  0  0  0  0  0  0  0  0  0
  -11.9338  -21.3993   34.1122 C   0  0  0  0  0  0  0  0  0  0  0  0
  -12.9058  -20.9151   33.2685 C   0  0  0  0  0  0  0  0  0  0  0  0
  -12.6716  -20.9368   31.9074 C   0  0  0  0  0  0  0  0  0  0  0  0
  -12.2961  -22.8823   28.4399 O   0  0  0  0  0  0  0  0  0  0  0  0
  -13.8622  -26.1941   27.1123 H   0  0  0  0  0  0  0  0  0  0  0  0
  -13.2242  -25.0060   28.2102 H   0  0  0  0  0  0  0  0  0  0  0  0
  -14.5910  -24.5973   27.1337 H   0  0  0  0  0  0  0  0  0  0  0  0
  -13.3540  -24.8438   25.1918 H   0  0  0  0  0  0  0  0  0  0  0  0
  -13.0739  -22.6708   25.8604 H   0  0  0  0  0  0  0  0  0  0  0  0
  -11.5289  -23.1420   25.2213 H   0  0  0  0  0  0  0  0  0  0  0  0
  -11.0908  -21.8168   27.2022 H   0  0  0  0  0  0  0  0  0  0  0  0
   -9.9807  -24.2537   26.5975 H   0  0  0  0  0  0  0  0  0  0  0  0
   -9.3362  -23.0673   27.7078 H   0  0  0  0  0  0  0  0  0  0  0  0
  -11.0762  -25.4478   28.4930 H   0  0  0  0  0  0  0  0  0  0  0  0
   -9.3553  -25.2330   28.7652 H   0  0  0  0  0  0  0  0  0  0  0  0
   -9.6731  -23.3519   30.1406 H   0  0  0  0  0  0  0  0  0  0  0  0
  -11.2770  -24.1637   32.0113 H   0  0  0  0  0  0  0  0  0  0  0  0
  -11.8414  -25.3509   30.8790 H   0  0  0  0  0  0  0  0  0  0  0  0
  -10.4232  -26.5898   32.0585 H   0  0  0  0  0  0  0  0  0  0  0  0
   -9.4063  -26.1067   30.7066 H   0  0  0  0  0  0  0  0  0  0  0  0
   -8.2077  -26.1738   32.8587 H   0  0  0  0  0  0  0  0  0  0  0  0
   -8.6628  -24.1169   33.9688 H   0  0  0  0  0  0  0  0  0  0  0  0
   -8.5755  -23.5726   31.6086 H   0  0  0  0  0  0  0  0  0  0  0  0
   -6.5805  -24.4560   33.5030 H   0  0  0  0  0  0  0  0  0  0  0  0
   -6.4728  -23.1602   32.6683 H   0  0  0  0  0  0  0  0  0  0  0  0
  -12.5693  -23.1174   30.3644 H   0  0  0  0  0  0  0  0  0  0  0  0
  -11.8118  -20.8729   29.4648 H   0  0  0  0  0  0  0  0  0  0  0  0
   -9.4737  -21.9993   31.9450 H   0  0  0  0  0  0  0  0  0  0  0  0
  -10.0662  -22.4008   34.2848 H   0  0  0  0  0  0  0  0  0  0  0  0
  -12.1238  -21.4274   35.1652 H   0  0  0  0  0  0  0  0  0  0  0  0
  -13.8696  -20.6089   33.6624 H   0  0  0  0  0  0  0  0  0  0  0  0
  -13.5091  -20.7269   31.2590 H   0  0  0  0  0  0  0  0  0  0  0  0
  1  2  1  0
  2  3  1  0
  2  4  1  0
  4  5  1  0
  5  6  1  0
  6  7  1  0
  7  8  1  0
  8  9  1  0
  9 10  1  0
 10 11  1  0
 11 12  1  0
 11 13  1  0
 13 14  1  0
  8 15  1  0
 15 16  1  0
 16 17  1  0
 17 18  2  0
 18 19  1  0
 19 20  2  0
 20 21  1  0
 21 22  2  0
 15 23  1  0
 23  5  1  0
 22 17  1  0
  1 24  1  0
  1 25  1  0
  1 26  1  0
  2 27  1  0
  4 28  1  0
  4 29  1  0
  5 30  1  0
  6 31  1  0
  6 32  1  0
  7 33  1  0
  7 34  1  0
  8 35  1  0
  9 36  1  0
  9 37  1  0
 10 38  1  0
 10 39  1  0
 11 40  1  0
 12 41  1  0
 13 42  1  0
 14 43  1  0
 14 44  1  0
 15 45  1  0
 16 46  1  0
 18 47  1  0
 19 48  1  0
 20 49  1  0
 21 50  1  0
 22 51  1  0
M  END
>  <Energy>  (44) 
50.201513404758785

>  <compound_id>  (44) 
1386

>  <target_id>  (44) 
1

>  <reference_id>  (44) 
96

>  <inspiration_ids>  (44) 
[3, 96]

>  <energy_score>  (44) 
-27.854777400324906

>  <distance_score>  (44) 
1.6629795700341465

>  <path>  (44) 
/opt/xchem-fragalysis-2/maxwin/BulkDock/SCRATCH/505732/C1386-P96/C1386-P96.minimised.mol

>  <scratch_subdir>  (44) 
/opt/xchem-fragalysis-2/maxwin/BulkDock/SCRATCH/505732/C1386-P96

>  <fragmenstein_runtime>  (44) 
4.02629828453064

>  <fragmenstein_outcome>  (44) 
too moved

>  <fragmenstein_mode>  (44) 
expansion

>  <fragmenstein_error>  (44) 


$$$$
C1387-P3
     RDKit          3D

 41 44  0  0  0  0  0  0  0  0999 V2000
  -12.9519  -27.2647   26.9788 O   0  0  0  0  0  0  0  0  0  0  0  0
  -12.8943  -25.9571   27.5375 C   0  0  0  0  0  0  0  0  0  0  0  0
  -12.0500  -25.0555   26.6854 C   0  0  0  0  0  0  0  0  0  0  0  0
  -12.0106  -23.6294   27.2742 C   0  0  0  0  0  0  0  0  0  0  0  0
  -13.3538  -22.9289   27.0484 C   0  0  0  0  0  0  0  0  0  0  0  0
  -13.3796  -22.5459   25.5833 C   0  0  0  0  0  0  0  0  0  0  0  0
  -11.9815  -22.0005   25.3987 C   0  0  0  0  0  0  0  0  0  0  0  0
  -11.0884  -22.7390   26.4169 C   0  0  0  0  0  0  0  0  0  0  0  0
  -11.6138  -23.6600   28.7305 N   0  0  0  0  0  0  0  0  0  0  0  0
  -11.4199  -22.4440   29.4124 N   0  0  0  0  0  0  0  0  0  0  0  0
  -10.6181  -22.2021   30.5630 C   0  0  0  0  0  0  0  0  0  0  0  0
   -9.6158  -23.0686   31.0039 C   0  0  0  0  0  0  0  0  0  0  0  0
   -8.9545  -22.8677   32.2160 C   0  0  0  0  0  0  0  0  0  0  0  0
   -9.3184  -21.8137   33.0419 C   0  0  0  0  0  0  0  0  0  0  0  0
  -10.3190  -20.9394   32.6341 C   0  0  0  0  0  0  0  0  0  0  0  0
  -10.9414  -21.1159   31.3926 C   0  0  0  0  0  0  0  0  0  0  0  0
  -11.8752  -24.8030   29.4625 C   0  0  0  0  0  0  0  0  0  0  0  0
  -11.7380  -25.0263   30.7559 N   0  0  0  0  0  0  0  0  0  0  0  0
  -12.0546  -26.3353   30.9694 C   0  0  0  0  0  0  0  0  0  0  0  0
  -12.4236  -26.9423   29.7992 C   0  0  0  0  0  0  0  0  0  0  0  0
  -12.3588  -25.9516   28.8733 N   0  0  0  0  0  0  0  0  0  0  0  0
  -12.1654  -27.7723   27.2441 H   0  0  0  0  0  0  0  0  0  0  0  0
  -13.9292  -25.6098   27.6104 H   0  0  0  0  0  0  0  0  0  0  0  0
  -11.0454  -25.4726   26.5766 H   0  0  0  0  0  0  0  0  0  0  0  0
  -12.5000  -25.0867   25.7014 H   0  0  0  0  0  0  0  0  0  0  0  0
  -13.3348  -21.9822   27.5778 H   0  0  0  0  0  0  0  0  0  0  0  0
  -14.2366  -23.4926   27.3548 H   0  0  0  0  0  0  0  0  0  0  0  0
  -14.1411  -21.7919   25.3630 H   0  0  0  0  0  0  0  0  0  0  0  0
  -13.5768  -23.4036   24.9378 H   0  0  0  0  0  0  0  0  0  0  0  0
  -11.9967  -20.9282   25.6249 H   0  0  0  0  0  0  0  0  0  0  0  0
  -11.6237  -22.1167   24.3715 H   0  0  0  0  0  0  0  0  0  0  0  0
  -10.3342  -23.3235   25.8815 H   0  0  0  0  0  0  0  0  0  0  0  0
  -10.5500  -22.0117   27.0286 H   0  0  0  0  0  0  0  0  0  0  0  0
  -11.6331  -21.5738   28.9254 H   0  0  0  0  0  0  0  0  0  0  0  0
   -9.3508  -23.9449   30.4287 H   0  0  0  0  0  0  0  0  0  0  0  0
   -8.1806  -23.5662   32.5215 H   0  0  0  0  0  0  0  0  0  0  0  0
   -8.8300  -21.6946   34.0011 H   0  0  0  0  0  0  0  0  0  0  0  0
  -10.6479  -20.1332   33.2833 H   0  0  0  0  0  0  0  0  0  0  0  0
  -11.7381  -20.4280   31.1190 H   0  0  0  0  0  0  0  0  0  0  0  0
  -12.0241  -26.7677   31.9609 H   0  0  0  0  0  0  0  0  0  0  0  0
  -12.7814  -27.9398   29.5839 H   0  0  0  0  0  0  0  0  0  0  0  0
  1  2  1  0
  2  3  1  0
  3  4  1  0
  4  5  1  0
  5  6  1  0
  6  7  1  0
  7  8  1  0
  4  9  1  0
  9 10  1  0
 10 11  1  0
 11 12  2  0
 12 13  1  0
 13 14  2  0
 14 15  1  0
 15 16  2  0
  9 17  1  0
 17 18  2  0
 18 19  1  0
 19 20  2  0
 20 21  1  0
 21  2  1  0
  8  4  1  0
 16 11  1  0
 21 17  1  0
  1 22  1  0
  2 23  1  0
  3 24  1  0
  3 25  1  0
  5 26  1  0
  5 27  1  0
  6 28  1  0
  6 29  1  0
  7 30  1  0
  7 31  1  0
  8 32  1  0
  8 33  1  0
 10 34  1  0
 12 35  1  0
 13 36  1  0
 14 37  1  0
 15 38  1  0
 16 39  1  0
 19 40  1  0
 20 41  1  0
M  END
>  <Energy>  (45) 
58.719768878808722

>  <compound_id>  (45) 
1387

>  <target_id>  (45) 
1

>  <reference_id>  (45) 
3

>  <inspiration_ids>  (45) 
[3, 101]

>  <energy_score>  (45) 
-6.669373520698969

>  <distance_score>  (45) 
1.6796809223662592

>  <path>  (45) 
/opt/xchem-fragalysis-2/maxwin/BulkDock/SCRATCH/505732/C1387-P3/C1387-P3.minimised.mol

>  <scratch_subdir>  (45) 
/opt/xchem-fragalysis-2/maxwin/BulkDock/SCRATCH/505732/C1387-P3

>  <fragmenstein_runtime>  (45) 
3.902071475982666

>  <fragmenstein_outcome>  (45) 
too moved

>  <fragmenstein_mode>  (45) 
expansion

>  <fragmenstein_error>  (45) 


$$$$
C1387-P101
     RDKit          3D

 41 44  0  0  0  0  0  0  0  0999 V2000
  -10.3504  -27.4475   25.9062 O   0  0  0  0  0  0  0  0  0  0  0  0
  -11.2494  -26.6894   26.7092 C   0  0  0  0  0  0  0  0  0  0  0  0
  -11.4901  -25.4482   25.9660 C   0  0  0  0  0  0  0  0  0  0  0  0
  -12.4652  -24.5288   26.6984 C   0  0  0  0  0  0  0  0  0  0  0  0
  -13.8568  -25.1560   26.5584 C   0  0  0  0  0  0  0  0  0  0  0  0
  -14.3726  -24.7194   25.1990 C   0  0  0  0  0  0  0  0  0  0  0  0
  -13.7538  -23.3615   24.9494 C   0  0  0  0  0  0  0  0  0  0  0  0
  -12.4187  -23.3706   25.7165 C   0  0  0  0  0  0  0  0  0  0  0  0
  -12.0397  -24.2954   28.1686 N   0  0  0  0  0  0  0  0  0  0  0  0
  -12.2932  -23.0585   28.9724 N   0  0  0  0  0  0  0  0  0  0  0  0
  -12.1954  -22.9674   30.4456 C   0  0  0  0  0  0  0  0  0  0  0  0
  -11.1013  -23.3632   31.2101 C   0  0  0  0  0  0  0  0  0  0  0  0
  -11.0261  -23.3283   32.6028 C   0  0  0  0  0  0  0  0  0  0  0  0
  -12.0594  -22.7817   33.3218 C   0  0  0  0  0  0  0  0  0  0  0  0
  -13.1461  -22.2948   32.6316 C   0  0  0  0  0  0  0  0  0  0  0  0
  -13.2124  -22.4195   31.2286 C   0  0  0  0  0  0  0  0  0  0  0  0
  -11.3008  -25.2940   28.7237 C   0  0  0  0  0  0  0  0  0  0  0  0
  -10.9641  -25.5453   29.9581 N   0  0  0  0  0  0  0  0  0  0  0  0
   -9.9077  -26.3611   29.9260 C   0  0  0  0  0  0  0  0  0  0  0  0
   -9.5991  -26.5934   28.6172 C   0  0  0  0  0  0  0  0  0  0  0  0
  -10.7305  -26.2756   27.9755 N   0  0  0  0  0  0  0  0  0  0  0  0
   -9.4595  -27.3510   26.2761 H   0  0  0  0  0  0  0  0  0  0  0  0
  -12.1262  -27.3139   26.8881 H   0  0  0  0  0  0  0  0  0  0  0  0
  -10.5508  -24.9027   25.8364 H   0  0  0  0  0  0  0  0  0  0  0  0
  -11.8220  -25.7232   24.9622 H   0  0  0  0  0  0  0  0  0  0  0  0
  -13.8598  -26.2488   26.5892 H   0  0  0  0  0  0  0  0  0  0  0  0
  -14.5455  -24.8745   27.3449 H   0  0  0  0  0  0  0  0  0  0  0  0
  -15.4668  -24.6799   25.1779 H   0  0  0  0  0  0  0  0  0  0  0  0
  -14.0708  -25.4399   24.4336 H   0  0  0  0  0  0  0  0  0  0  0  0
  -14.4986  -22.6267   25.2468 H   0  0  0  0  0  0  0  0  0  0  0  0
  -13.5958  -23.1764   23.8820 H   0  0  0  0  0  0  0  0  0  0  0  0
  -11.9907  -22.5131   26.2097 H   0  0  0  0  0  0  0  0  0  0  0  0
  -11.6799  -23.4941   24.9096 H   0  0  0  0  0  0  0  0  0  0  0  0
  -11.6222  -22.3517   28.6499 H   0  0  0  0  0  0  0  0  0  0  0  0
  -10.2639  -23.8668   30.7733 H   0  0  0  0  0  0  0  0  0  0  0  0
  -10.1731  -23.7925   33.0830 H   0  0  0  0  0  0  0  0  0  0  0  0
  -12.0674  -22.8062   34.4029 H   0  0  0  0  0  0  0  0  0  0  0  0
  -14.0078  -21.9265   33.1805 H   0  0  0  0  0  0  0  0  0  0  0  0
  -14.1759  -22.1932   30.8153 H   0  0  0  0  0  0  0  0  0  0  0  0
   -9.4049  -26.6447   30.8420 H   0  0  0  0  0  0  0  0  0  0  0  0
   -8.7539  -27.0507   28.1487 H   0  0  0  0  0  0  0  0  0  0  0  0
  1  2  1  0
  2  3  1  0
  3  4  1  0
  4  5  1  0
  5  6  1  0
  6  7  1  0
  7  8  1  0
  4  9  1  0
  9 10  1  0
 10 11  1  0
 11 12  2  0
 12 13  1  0
 13 14  2  0
 14 15  1  0
 15 16  2  0
  9 17  1  0
 17 18  2  0
 18 19  1  0
 19 20  2  0
 20 21  1  0
 21  2  1  0
  8  4  1  0
 16 11  1  0
 21 17  1  0
  1 22  1  0
  2 23  1  0
  3 24  1  0
  3 25  1  0
  5 26  1  0
  5 27  1  0
  6 28  1  0
  6 29  1  0
  7 30  1  0
  7 31  1  0
  8 32  1  0
  8 33  1  0
 10 34  1  0
 12 35  1  0
 13 36  1  0
 14 37  1  0
 15 38  1  0
 16 39  1  0
 19 40  1  0
 20 41  1  0
M  END
>  <Energy>  (46) 
118.97614742475385

>  <compound_id>  (46) 
1387

>  <target_id>  (46) 
1

>  <reference_id>  (46) 
101

>  <inspiration_ids>  (46) 
[3, 101]

>  <energy_score>  (46) 
53.58700502524954

>  <distance_score>  (46) 
2.3036024413985645

>  <path>  (46) 
/opt/xchem-fragalysis-2/maxwin/BulkDock/SCRATCH/505732/C1387-P101/C1387-P101.minimised.mol

>  <scratch_subdir>  (46) 
/opt/xchem-fragalysis-2/maxwin/BulkDock/SCRATCH/505732/C1387-P101

>  <fragmenstein_runtime>  (46) 
5.122403621673584

>  <fragmenstein_outcome>  (46) 
too moved

>  <fragmenstein_mode>  (46) 
expansion

>  <fragmenstein_error>  (46) 


$$$$
C1388-P3
     RDKit          3D

 50 51  0  0  0  0  0  0  0  0999 V2000
  -13.0322  -27.5984   28.9055 C   0  0  0  0  0  0  0  0  0  0  0  0
  -12.0634  -27.3796   27.7850 C   0  0  0  0  0  0  0  0  0  0  0  0
  -11.2767  -26.0889   27.6752 C   0  0  0  0  0  0  0  0  0  0  0  0
  -12.0173  -24.8957   27.4240 N   0  0  0  0  0  0  0  0  0  0  0  0
  -11.4118  -23.7894   26.6741 C   0  0  0  0  0  0  0  0  0  0  0  0
  -12.3836  -22.6465   26.2345 C   0  0  0  0  0  0  0  0  0  0  0  0
  -12.4671  -21.3331   27.0528 C   0  0  0  0  0  0  0  0  0  0  0  0
  -11.2902  -20.6799   27.7865 C   0  0  0  0  0  0  0  0  0  0  0  0
  -11.5705  -19.7803   29.0514 C   0  0  0  0  0  0  0  0  0  0  0  0
  -11.6963  -20.2513   30.4968 C   0  0  0  0  0  0  0  0  0  0  0  0
  -10.4416  -18.9122   29.2477 N   0  0  0  0  0  0  0  0  0  0  0  0
  -14.1554  -23.2462   26.1824 S   0  0  0  0  0  0  0  0  0  0  0  0
  -14.2051  -24.1937   27.7986 C   0  0  0  0  0  0  0  0  0  0  0  0
  -15.1751  -23.7311   28.6189 F   0  0  0  0  0  0  0  0  0  0  0  0
  -14.6873  -25.4323   27.4305 F   0  0  0  0  0  0  0  0  0  0  0  0
  -12.7877  -24.4341   28.5541 C   0  0  0  0  0  0  0  0  0  0  0  0
  -12.1598  -23.3858   29.4111 N   0  0  0  0  0  0  0  0  0  0  0  0
  -11.0293  -23.6285   30.2292 C   0  0  0  0  0  0  0  0  0  0  0  0
  -10.9170  -24.6698   31.1287 C   0  0  0  0  0  0  0  0  0  0  0  0
   -9.9521  -24.6197   32.1570 C   0  0  0  0  0  0  0  0  0  0  0  0
   -9.0716  -23.5662   32.2832 C   0  0  0  0  0  0  0  0  0  0  0  0
   -9.1134  -22.5718   31.3672 C   0  0  0  0  0  0  0  0  0  0  0  0
  -10.0445  -22.6419   30.3439 C   0  0  0  0  0  0  0  0  0  0  0  0
  -13.3055  -28.6594   28.9523 H   0  0  0  0  0  0  0  0  0  0  0  0
  -12.5924  -27.3427   29.8741 H   0  0  0  0  0  0  0  0  0  0  0  0
  -13.9694  -27.0567   28.7803 H   0  0  0  0  0  0  0  0  0  0  0  0
  -11.3073  -28.1510   27.9487 H   0  0  0  0  0  0  0  0  0  0  0  0
  -12.5955  -27.5590   26.8447 H   0  0  0  0  0  0  0  0  0  0  0  0
  -10.6617  -26.0089   28.5637 H   0  0  0  0  0  0  0  0  0  0  0  0
  -10.6730  -26.2638   26.7944 H   0  0  0  0  0  0  0  0  0  0  0  0
  -10.5851  -23.3440   27.2214 H   0  0  0  0  0  0  0  0  0  0  0  0
  -10.9585  -24.2021   25.7693 H   0  0  0  0  0  0  0  0  0  0  0  0
  -12.1182  -22.3682   25.2074 H   0  0  0  0  0  0  0  0  0  0  0  0
  -12.9034  -20.5738   26.3927 H   0  0  0  0  0  0  0  0  0  0  0  0
  -13.1905  -21.5019   27.8071 H   0  0  0  0  0  0  0  0  0  0  0  0
  -10.9488  -19.9615   27.0536 H   0  0  0  0  0  0  0  0  0  0  0  0
  -10.4547  -21.3592   27.9078 H   0  0  0  0  0  0  0  0  0  0  0  0
  -12.3969  -19.1317   28.7763 H   0  0  0  0  0  0  0  0  0  0  0  0
  -10.7484  -20.3768   31.0267 H   0  0  0  0  0  0  0  0  0  0  0  0
  -12.2396  -21.1667   30.5831 H   0  0  0  0  0  0  0  0  0  0  0  0
  -12.1966  -19.5033   31.1228 H   0  0  0  0  0  0  0  0  0  0  0  0
  -10.7064  -18.1553   29.8996 H   0  0  0  0  0  0  0  0  0  0  0  0
  -10.3163  -18.4144   28.3685 H   0  0  0  0  0  0  0  0  0  0  0  0
  -13.0366  -25.2221   29.2606 H   0  0  0  0  0  0  0  0  0  0  0  0
  -11.9055  -22.6079   28.8307 H   0  0  0  0  0  0  0  0  0  0  0  0
  -11.6291  -25.4874   31.1325 H   0  0  0  0  0  0  0  0  0  0  0  0
   -9.9244  -25.3895   32.9204 H   0  0  0  0  0  0  0  0  0  0  0  0
   -8.3210  -23.4989   33.0459 H   0  0  0  0  0  0  0  0  0  0  0  0
   -8.4164  -21.7558   31.4592 H   0  0  0  0  0  0  0  0  0  0  0  0
   -9.9758  -21.8384   29.6380 H   0  0  0  0  0  0  0  0  0  0  0  0
  1  2  1  0
  2  3  1  0
  3  4  1  0
  4  5  1  0
  5  6  1  0
  6  7  1  0
  7  8  1  0
  8  9  1  0
  9 10  1  0
  9 11  1  0
  6 12  1  0
 12 13  1  0
 13 14  1  0
 13 15  1  0
 13 16  1  0
 16 17  1  0
 17 18  1  0
 18 19  2  0
 19 20  1  0
 20 21  2  0
 21 22  1  0
 22 23  2  0
 16  4  1  0
 23 18  1  0
  1 24  1  0
  1 25  1  0
  1 26  1  0
  2 27  1  0
  2 28  1  0
  3 29  1  0
  3 30  1  0
  5 31  1  0
  5 32  1  0
  6 33  1  0
  7 34  1  0
  7 35  1  0
  8 36  1  0
  8 37  1  0
  9 38  1  0
 10 39  1  0
 10 40  1  0
 10 41  1  0
 11 42  1  0
 11 43  1  0
 16 44  1  0
 17 45  1  0
 19 46  1  0
 20 47  1  0
 21 48  1  0
 22 49  1  0
 23 50  1  0
M  END
>  <Energy>  (47) 
196.34585353715192

>  <compound_id>  (47) 
1388

>  <target_id>  (47) 
1

>  <reference_id>  (47) 
3

>  <inspiration_ids>  (47) 
[3, 104]

>  <energy_score>  (47) 
17.719196787495036

>  <distance_score>  (47) 
2.1311585999098877

>  <path>  (47) 
/opt/xchem-fragalysis-2/maxwin/BulkDock/SCRATCH/505732/C1388-P3/C1388-P3.minimised.mol

>  <scratch_subdir>  (47) 
/opt/xchem-fragalysis-2/maxwin/BulkDock/SCRATCH/505732/C1388-P3

>  <fragmenstein_runtime>  (47) 
3.9338598251342773

>  <fragmenstein_outcome>  (47) 
too moved

>  <fragmenstein_mode>  (47) 
expansion

>  <fragmenstein_error>  (47) 


$$$$
C1388-P104
     RDKit          3D

 50 51  0  0  0  0  0  0  0  0999 V2000
  -12.2337  -29.1968   26.1077 C   0  0  0  0  0  0  0  0  0  0  0  0
  -11.3858  -28.0437   25.5749 C   0  0  0  0  0  0  0  0  0  0  0  0
  -10.6899  -27.2324   26.6881 C   0  0  0  0  0  0  0  0  0  0  0  0
  -10.6730  -25.7756   26.7082 N   0  0  0  0  0  0  0  0  0  0  0  0
  -10.6953  -24.8946   25.5915 C   0  0  0  0  0  0  0  0  0  0  0  0
  -12.0089  -24.6695   24.8081 C   0  0  0  0  0  0  0  0  0  0  0  0
  -11.9212  -23.2895   24.2193 C   0  0  0  0  0  0  0  0  0  0  0  0
  -13.1069  -22.4754   23.7796 C   0  0  0  0  0  0  0  0  0  0  0  0
  -13.6743  -21.5933   24.8824 C   0  0  0  0  0  0  0  0  0  0  0  0
  -13.1774  -21.9294   26.2820 C   0  0  0  0  0  0  0  0  0  0  0  0
  -15.1263  -21.5860   24.6760 N   0  0  0  0  0  0  0  0  0  0  0  0
  -13.6646  -25.0155   25.3457 S   0  0  0  0  0  0  0  0  0  0  0  0
  -13.1408  -25.5638   26.9064 C   0  0  0  0  0  0  0  0  0  0  0  0
  -14.1002  -25.2160   27.7746 F   0  0  0  0  0  0  0  0  0  0  0  0
  -13.3113  -26.9151   26.8676 F   0  0  0  0  0  0  0  0  0  0  0  0
  -11.7048  -25.2333   27.5588 C   0  0  0  0  0  0  0  0  0  0  0  0
  -11.4821  -23.8526   28.1003 N   0  0  0  0  0  0  0  0  0  0  0  0
  -10.8907  -23.8758   29.4005 C   0  0  0  0  0  0  0  0  0  0  0  0
   -9.9970  -24.8979   29.8166 C   0  0  0  0  0  0  0  0  0  0  0  0
   -9.6782  -25.0509   31.1679 C   0  0  0  0  0  0  0  0  0  0  0  0
  -10.2147  -24.1766   32.1132 C   0  0  0  0  0  0  0  0  0  0  0  0
  -10.9827  -23.0746   31.7154 C   0  0  0  0  0  0  0  0  0  0  0  0
  -11.2758  -22.8874   30.3540 C   0  0  0  0  0  0  0  0  0  0  0  0
  -12.0237  -29.4560   27.1461 H   0  0  0  0  0  0  0  0  0  0  0  0
  -13.2921  -28.9410   26.0587 H   0  0  0  0  0  0  0  0  0  0  0  0
  -12.0814  -30.0954   25.5020 H   0  0  0  0  0  0  0  0  0  0  0  0
  -10.6336  -28.4828   24.9121 H   0  0  0  0  0  0  0  0  0  0  0  0
  -12.0178  -27.4336   24.9341 H   0  0  0  0  0  0  0  0  0  0  0  0
  -11.0186  -27.6155   27.6622 H   0  0  0  0  0  0  0  0  0  0  0  0
   -9.6329  -27.5116   26.7087 H   0  0  0  0  0  0  0  0  0  0  0  0
  -10.3688  -23.9472   26.0199 H   0  0  0  0  0  0  0  0  0  0  0  0
   -9.8787  -25.0443   24.9158 H   0  0  0  0  0  0  0  0  0  0  0  0
  -12.0142  -25.4650   24.1056 H   0  0  0  0  0  0  0  0  0  0  0  0
  -11.5572  -22.7692   25.0652 H   0  0  0  0  0  0  0  0  0  0  0  0
  -11.1388  -23.2317   23.4611 H   0  0  0  0  0  0  0  0  0  0  0  0
  -13.8844  -23.0880   23.3152 H   0  0  0  0  0  0  0  0  0  0  0  0
  -12.7394  -21.8275   22.9788 H   0  0  0  0  0  0  0  0  0  0  0  0
  -13.3072  -20.5878   24.7121 H   0  0  0  0  0  0  0  0  0  0  0  0
  -13.5470  -21.3224   27.0642 H   0  0  0  0  0  0  0  0  0  0  0  0
  -13.4682  -22.9140   26.5987 H   0  0  0  0  0  0  0  0  0  0  0  0
  -12.1075  -21.7582   26.4195 H   0  0  0  0  0  0  0  0  0  0  0  0
  -15.5522  -22.3601   25.1835 H   0  0  0  0  0  0  0  0  0  0  0  0
  -15.4936  -20.7350   25.1423 H   0  0  0  0  0  0  0  0  0  0  0  0
  -11.6165  -25.8770   28.4042 H   0  0  0  0  0  0  0  0  0  0  0  0
  -12.3322  -23.3101   28.1865 H   0  0  0  0  0  0  0  0  0  0  0  0
   -9.5827  -25.6132   29.1161 H   0  0  0  0  0  0  0  0  0  0  0  0
   -9.0396  -25.8707   31.4810 H   0  0  0  0  0  0  0  0  0  0  0  0
  -10.0037  -24.3714   33.1536 H   0  0  0  0  0  0  0  0  0  0  0  0
  -11.3767  -22.3846   32.4536 H   0  0  0  0  0  0  0  0  0  0  0  0
  -11.8622  -22.0303   30.0562 H   0  0  0  0  0  0  0  0  0  0  0  0
  1  2  1  0
  2  3  1  0
  3  4  1  0
  4  5  1  0
  5  6  1  0
  6  7  1  0
  7  8  1  0
  8  9  1  0
  9 10  1  0
  9 11  1  0
  6 12  1  0
 12 13  1  0
 13 14  1  0
 13 15  1  0
 13 16  1  0
 16 17  1  0
 17 18  1  0
 18 19  2  0
 19 20  1  0
 20 21  2  0
 21 22  1  0
 22 23  2  0
 16  4  1  0
 23 18  1  0
  1 24  1  0
  1 25  1  0
  1 26  1  0
  2 27  1  0
  2 28  1  0
  3 29  1  0
  3 30  1  0
  5 31  1  0
  5 32  1  0
  6 33  1  0
  7 34  1  0
  7 35  1  0
  8 36  1  0
  8 37  1  0
  9 38  1  0
 10 39  1  0
 10 40  1  0
 10 41  1  0
 11 42  1  0
 11 43  1  0
 16 44  1  0
 17 45  1  0
 19 46  1  0
 20 47  1  0
 21 48  1  0
 22 49  1  0
 23 50  1  0
M  END
>  <Energy>  (48) 
210.42172369137663

>  <compound_id>  (48) 
1388

>  <target_id>  (48) 
1

>  <reference_id>  (48) 
104

>  <inspiration_ids>  (48) 
[3, 104]

>  <energy_score>  (48) 
44.50281065405153

>  <distance_score>  (48) 
2.871326200736412

>  <path>  (48) 
/opt/xchem-fragalysis-2/maxwin/BulkDock/SCRATCH/505732/C1388-P104/C1388-P104.minimised.mol

>  <scratch_subdir>  (48) 
/opt/xchem-fragalysis-2/maxwin/BulkDock/SCRATCH/505732/C1388-P104

>  <fragmenstein_runtime>  (48) 
6.932722091674805

>  <fragmenstein_outcome>  (48) 
too moved

>  <fragmenstein_mode>  (48) 
expansion

>  <fragmenstein_error>  (48) 


$$$$
C1389-P3
     RDKit          3D

 42 44  0  0  0  0  0  0  0  0999 V2000
  -11.3242  -24.6669   29.1981 C   0  0  0  0  0  0  0  0  0  0  0  0
  -11.7706  -23.2633   28.7660 C   0  0  0  0  0  0  0  0  0  0  0  0
  -11.6086  -22.3802   29.9398 N   0  0  0  0  0  0  0  0  0  0  0  0
  -10.6341  -22.1610   30.9002 C   0  0  0  0  0  0  0  0  0  0  0  0
   -9.4792  -22.8982   31.1250 C   0  0  0  0  0  0  0  0  0  0  0  0
   -8.7326  -22.7559   32.2986 C   0  0  0  0  0  0  0  0  0  0  0  0
   -9.1207  -21.8558   33.2774 C   0  0  0  0  0  0  0  0  0  0  0  0
  -10.2213  -21.0511   33.0537 C   0  0  0  0  0  0  0  0  0  0  0  0
  -10.9363  -21.1813   31.8664 C   0  0  0  0  0  0  0  0  0  0  0  0
  -13.2186  -23.5053   28.6682 O   0  0  0  0  0  0  0  0  0  0  0  0
  -13.9121  -23.9441   27.5839 C   0  0  0  0  0  0  0  0  0  0  0  0
  -14.8011  -23.2750   27.0682 O   0  0  0  0  0  0  0  0  0  0  0  0
  -13.6399  -25.2734   27.1019 C   0  0  0  0  0  0  0  0  0  0  0  0
  -13.7075  -25.6859   25.7612 C   0  0  0  0  0  0  0  0  0  0  0  0
  -13.1951  -26.8994   25.5768 N   0  0  0  0  0  0  0  0  0  0  0  0
  -13.0065  -27.3503   26.8250 N   0  0  0  0  0  0  0  0  0  0  0  0
  -13.3300  -26.4318   27.7771 C   0  0  0  0  0  0  0  0  0  0  0  0
  -11.2545  -22.6100   27.5774 N   0  0  0  0  0  0  0  0  0  0  0  0
  -11.1104  -23.2656   26.2996 C   0  0  0  0  0  0  0  0  0  0  0  0
  -11.9855  -22.5196   25.2991 C   0  0  0  0  0  0  0  0  0  0  0  0
  -12.4101  -21.2389   25.9606 C   0  0  0  0  0  0  0  0  0  0  0  0
  -11.7615  -21.2565   27.3245 C   0  0  0  0  0  0  0  0  0  0  0  0
  -10.4485  -24.7408   29.8214 H   0  0  0  0  0  0  0  0  0  0  0  0
  -11.1656  -25.3259   28.3440 H   0  0  0  0  0  0  0  0  0  0  0  0
  -12.0903  -25.1320   29.8331 H   0  0  0  0  0  0  0  0  0  0  0  0
  -11.9665  -21.4589   29.7147 H   0  0  0  0  0  0  0  0  0  0  0  0
   -9.0901  -23.6082   30.4152 H   0  0  0  0  0  0  0  0  0  0  0  0
   -7.8572  -23.3800   32.4574 H   0  0  0  0  0  0  0  0  0  0  0  0
   -8.5577  -21.7925   34.1997 H   0  0  0  0  0  0  0  0  0  0  0  0
  -10.5740  -20.3476   33.8006 H   0  0  0  0  0  0  0  0  0  0  0  0
  -11.8107  -20.5419   31.7472 H   0  0  0  0  0  0  0  0  0  0  0  0
  -14.0381  -25.1135   24.9030 H   0  0  0  0  0  0  0  0  0  0  0  0
  -12.6682  -28.3068   26.9346 H   0  0  0  0  0  0  0  0  0  0  0  0
  -13.2662  -26.6808   28.8261 H   0  0  0  0  0  0  0  0  0  0  0  0
  -11.2843  -24.3406   26.3020 H   0  0  0  0  0  0  0  0  0  0  0  0
  -10.0773  -23.1400   25.9634 H   0  0  0  0  0  0  0  0  0  0  0  0
  -11.4371  -22.3124   24.3737 H   0  0  0  0  0  0  0  0  0  0  0  0
  -12.8840  -23.0782   25.0325 H   0  0  0  0  0  0  0  0  0  0  0  0
  -13.4991  -21.2208   26.0449 H   0  0  0  0  0  0  0  0  0  0  0  0
  -12.1285  -20.3626   25.3718 H   0  0  0  0  0  0  0  0  0  0  0  0
  -10.9378  -20.5453   27.3949 H   0  0  0  0  0  0  0  0  0  0  0  0
  -12.4951  -20.8863   28.0318 H   0  0  0  0  0  0  0  0  0  0  0  0
  1  2  1  0
  2  3  1  0
  3  4  1  0
  4  5  2  0
  5  6  1  0
  6  7  2  0
  7  8  1  0
  8  9  2  0
  2 10  1  0
 10 11  1  0
 11 12  2  0
 11 13  1  0
 13 14  1  0
 14 15  2  0
 15 16  1  0
 16 17  1  0
  2 18  1  0
 18 19  1  0
 19 20  1  0
 20 21  1  0
 21 22  1  0
  9  4  1  0
 17 13  2  0
 22 18  1  0
  1 23  1  0
  1 24  1  0
  1 25  1  0
  3 26  1  0
  5 27  1  0
  6 28  1  0
  7 29  1  0
  8 30  1  0
  9 31  1  0
 14 32  1  0
 16 33  1  0
 17 34  1  0
 19 35  1  0
 19 36  1  0
 20 37  1  0
 20 38  1  0
 21 39  1  0
 21 40  1  0
 22 41  1  0
 22 42  1  0
M  END
>  <Energy>  (49) 
-2.9004705441407217

>  <compound_id>  (49) 
1389

>  <target_id>  (49) 
1

>  <reference_id>  (49) 
3

>  <inspiration_ids>  (49) 
[3, 110]

>  <energy_score>  (49) 
4.660228889047147

>  <distance_score>  (49) 
1.5041795117392844

>  <path>  (49) 
/opt/xchem-fragalysis-2/maxwin/BulkDock/SCRATCH/505732/C1389-P3/C1389-P3.minimised.mol

>  <scratch_subdir>  (49) 
/opt/xchem-fragalysis-2/maxwin/BulkDock/SCRATCH/505732/C1389-P3

>  <fragmenstein_runtime>  (49) 
9.895469903945923

>  <fragmenstein_outcome>  (49) 
too moved

>  <fragmenstein_mode>  (49) 
expansion

>  <fragmenstein_error>  (49) 


$$$$
C1389-P110
     RDKit          3D

 42 44  0  0  0  0  0  0  0  0999 V2000
  -11.0261  -25.7612   29.0866 C   0  0  0  0  0  0  0  0  0  0  0  0
  -11.7917  -24.5242   28.5847 C   0  0  0  0  0  0  0  0  0  0  0  0
  -11.3481  -23.3562   29.3739 N   0  0  0  0  0  0  0  0  0  0  0  0
  -11.3684  -23.2835   30.7653 C   0  0  0  0  0  0  0  0  0  0  0  0
  -10.9129  -24.2689   31.6347 C   0  0  0  0  0  0  0  0  0  0  0  0
  -11.2515  -24.2309   32.9744 C   0  0  0  0  0  0  0  0  0  0  0  0
  -11.9423  -23.1379   33.4723 C   0  0  0  0  0  0  0  0  0  0  0  0
  -12.1344  -22.0196   32.6860 C   0  0  0  0  0  0  0  0  0  0  0  0
  -11.8070  -22.0938   31.3417 C   0  0  0  0  0  0  0  0  0  0  0  0
  -13.2530  -24.6872   28.6921 O   0  0  0  0  0  0  0  0  0  0  0  0
  -14.1930  -25.2517   27.8213 C   0  0  0  0  0  0  0  0  0  0  0  0
  -15.3855  -25.2244   28.0862 O   0  0  0  0  0  0  0  0  0  0  0  0
  -13.7764  -25.9571   26.6744 C   0  0  0  0  0  0  0  0  0  0  0  0
  -14.2746  -25.8565   25.3731 C   0  0  0  0  0  0  0  0  0  0  0  0
  -13.5608  -26.5905   24.5252 N   0  0  0  0  0  0  0  0  0  0  0  0
  -12.6200  -27.1342   25.3106 N   0  0  0  0  0  0  0  0  0  0  0  0
  -12.8675  -26.9691   26.6287 C   0  0  0  0  0  0  0  0  0  0  0  0
  -11.5930  -24.3883   27.1947 N   0  0  0  0  0  0  0  0  0  0  0  0
  -10.3957  -24.7027   26.5517 C   0  0  0  0  0  0  0  0  0  0  0  0
  -10.8098  -24.3913   25.1150 C   0  0  0  0  0  0  0  0  0  0  0  0
  -11.9477  -23.3960   25.1524 C   0  0  0  0  0  0  0  0  0  0  0  0
  -12.0962  -23.1956   26.6176 C   0  0  0  0  0  0  0  0  0  0  0  0
   -9.9600  -25.5441   29.2326 H   0  0  0  0  0  0  0  0  0  0  0  0
  -11.0397  -26.6074   28.4067 H   0  0  0  0  0  0  0  0  0  0  0  0
  -11.4462  -26.1823   29.9990 H   0  0  0  0  0  0  0  0  0  0  0  0
  -11.7915  -22.5378   28.9795 H   0  0  0  0  0  0  0  0  0  0  0  0
  -10.3420  -25.1291   31.3187 H   0  0  0  0  0  0  0  0  0  0  0  0
  -11.0265  -25.0773   33.6165 H   0  0  0  0  0  0  0  0  0  0  0  0
  -12.2761  -23.1452   34.5005 H   0  0  0  0  0  0  0  0  0  0  0  0
  -12.5758  -21.1328   33.1202 H   0  0  0  0  0  0  0  0  0  0  0  0
  -11.9605  -21.2537   30.6898 H   0  0  0  0  0  0  0  0  0  0  0  0
  -15.0865  -25.2435   25.0021 H   0  0  0  0  0  0  0  0  0  0  0  0
  -12.0034  -27.8378   24.9084 H   0  0  0  0  0  0  0  0  0  0  0  0
  -12.3422  -27.5482   27.3669 H   0  0  0  0  0  0  0  0  0  0  0  0
   -9.5716  -24.1107   26.9466 H   0  0  0  0  0  0  0  0  0  0  0  0
  -10.1596  -25.7651   26.6554 H   0  0  0  0  0  0  0  0  0  0  0  0
   -9.9975  -24.0538   24.4740 H   0  0  0  0  0  0  0  0  0  0  0  0
  -11.1608  -25.3235   24.6962 H   0  0  0  0  0  0  0  0  0  0  0  0
  -12.8850  -23.7955   24.7717 H   0  0  0  0  0  0  0  0  0  0  0  0
  -11.7917  -22.4922   24.5595 H   0  0  0  0  0  0  0  0  0  0  0  0
  -11.5589  -22.3235   26.9913 H   0  0  0  0  0  0  0  0  0  0  0  0
  -13.1520  -23.2047   26.8183 H   0  0  0  0  0  0  0  0  0  0  0  0
  1  2  1  0
  2  3  1  0
  3  4  1  0
  4  5  2  0
  5  6  1  0
  6  7  2  0
  7  8  1  0
  8  9  2  0
  2 10  1  0
 10 11  1  0
 11 12  2  0
 11 13  1  0
 13 14  1  0
 14 15  2  0
 15 16  1  0
 16 17  1  0
  2 18  1  0
 18 19  1  0
 19 20  1  0
 20 21  1  0
 21 22  1  0
  9  4  1  0
 17 13  2  0
 22 18  1  0
  1 23  1  0
  1 24  1  0
  1 25  1  0
  3 26  1  0
  5 27  1  0
  6 28  1  0
  7 29  1  0
  8 30  1  0
  9 31  1  0
 14 32  1  0
 16 33  1  0
 17 34  1  0
 19 35  1  0
 19 36  1  0
 20 37  1  0
 20 38  1  0
 21 39  1  0
 21 40  1  0
 22 41  1  0
 22 42  1  0
M  END
>  <Energy>  (50) 
6.9139154475713482

>  <compound_id>  (50) 
1389

>  <target_id>  (50) 
1

>  <reference_id>  (50) 
110

>  <inspiration_ids>  (50) 
[3, 110]

>  <energy_score>  (50) 
14.474614880761862

>  <distance_score>  (50) 
2.159012232056624

>  <path>  (50) 
/opt/xchem-fragalysis-2/maxwin/BulkDock/SCRATCH/505732/C1389-P110/C1389-P110.minimised.mol

>  <scratch_subdir>  (50) 
/opt/xchem-fragalysis-2/maxwin/BulkDock/SCRATCH/505732/C1389-P110

>  <fragmenstein_runtime>  (50) 
12.360606670379639

>  <fragmenstein_outcome>  (50) 
too moved

>  <fragmenstein_mode>  (50) 
expansion

>  <fragmenstein_error>  (50) 


$$$$
C1392-P3
     RDKit          3D

 37 39  0  0  0  0  0  0  0  0999 V2000
  -17.9933  -19.4622   36.7347 C   0  0  0  0  0  0  0  0  0  0  0  0
  -16.6685  -18.8365   36.7780 N   0  0  0  0  0  0  0  0  0  0  0  0
  -16.8077  -17.3966   36.5594 C   0  0  0  0  0  0  0  0  0  0  0  0
  -15.5384  -19.5328   35.9712 N   0  0  0  0  0  0  0  0  0  0  0  0
  -15.6514  -21.0097   35.9775 C   0  0  0  0  0  0  0  0  0  0  0  0
  -16.4077  -21.6393   34.9426 O   0  0  0  0  0  0  0  0  0  0  0  0
  -16.9518  -20.7508   34.0616 C   0  0  0  0  0  0  0  0  0  0  0  0
  -18.1973  -21.1287   33.5663 C   0  0  0  0  0  0  0  0  0  0  0  0
  -18.9547  -20.1848   32.8954 C   0  0  0  0  0  0  0  0  0  0  0  0
  -18.4256  -18.9147   32.6753 C   0  0  0  0  0  0  0  0  0  0  0  0
  -19.1681  -18.0024   32.0320 F   0  0  0  0  0  0  0  0  0  0  0  0
  -17.1456  -18.5578   33.0902 C   0  0  0  0  0  0  0  0  0  0  0  0
  -16.3872  -19.4728   33.8112 C   0  0  0  0  0  0  0  0  0  0  0  0
  -15.1780  -19.0133   34.6269 C   0  0  0  0  0  0  0  0  0  0  0  0
  -13.6506  -19.1671   34.1105 C   0  0  0  0  0  0  0  0  0  0  0  0
  -13.1994  -18.6878   32.8892 C   0  0  0  0  0  0  0  0  0  0  0  0
  -11.9665  -19.1189   32.2639 C   0  0  0  0  0  0  0  0  0  0  0  0
  -11.0851  -19.9960   32.8688 C   0  0  0  0  0  0  0  0  0  0  0  0
  -11.4331  -20.4169   34.1213 C   0  0  0  0  0  0  0  0  0  0  0  0
  -12.6808  -20.0081   34.6746 C   0  0  0  0  0  0  0  0  0  0  0  0
  -18.5171  -19.2806   35.7943 H   0  0  0  0  0  0  0  0  0  0  0  0
  -17.9849  -20.5341   36.9441 H   0  0  0  0  0  0  0  0  0  0  0  0
  -18.6189  -19.0316   37.5270 H   0  0  0  0  0  0  0  0  0  0  0  0
  -17.5169  -16.9788   37.2850 H   0  0  0  0  0  0  0  0  0  0  0  0
  -15.8849  -16.8443   36.7256 H   0  0  0  0  0  0  0  0  0  0  0  0
  -17.1894  -17.1516   35.5643 H   0  0  0  0  0  0  0  0  0  0  0  0
  -14.6746  -21.4785   35.9925 H   0  0  0  0  0  0  0  0  0  0  0  0
  -16.0644  -21.3502   36.9356 H   0  0  0  0  0  0  0  0  0  0  0  0
  -18.5968  -22.1147   33.7795 H   0  0  0  0  0  0  0  0  0  0  0  0
  -19.9508  -20.4214   32.5375 H   0  0  0  0  0  0  0  0  0  0  0  0
  -16.7932  -17.5452   32.9249 H   0  0  0  0  0  0  0  0  0  0  0  0
  -15.2293  -17.9185   34.6790 H   0  0  0  0  0  0  0  0  0  0  0  0
  -13.9442  -18.1315   32.3374 H   0  0  0  0  0  0  0  0  0  0  0  0
  -11.7293  -18.8155   31.2519 H   0  0  0  0  0  0  0  0  0  0  0  0
  -10.1805  -20.3325   32.3822 H   0  0  0  0  0  0  0  0  0  0  0  0
  -10.8241  -21.1279   34.6655 H   0  0  0  0  0  0  0  0  0  0  0  0
  -13.0043  -20.4736   35.5794 H   0  0  0  0  0  0  0  0  0  0  0  0
  1  2  1  0
  2  3  1  0
  2  4  1  0
  4  5  1  0
  5  6  1  0
  6  7  1  0
  7  8  2  0
  8  9  1  0
  9 10  2  0
 10 11  1  0
 10 12  1  0
 12 13  2  0
 13 14  1  0
 14 15  1  0
 15 16  2  0
 16 17  1  0
 17 18  2  0
 18 19  1  0
 19 20  2  0
 14  4  1  0
 20 15  1  0
 13  7  1  0
  1 21  1  0
  1 22  1  0
  1 23  1  0
  3 24  1  0
  3 25  1  0
  3 26  1  0
  5 27  1  0
  5 28  1  0
  8 29  1  0
  9 30  1  0
 12 31  1  0
 14 32  1  0
 16 33  1  0
 17 34  1  0
 18 35  1  0
 19 36  1  0
 20 37  1  0
M  END
>  <Energy>  (51) 
136.25101804723241

>  <compound_id>  (51) 
1392

>  <target_id>  (51) 
1

>  <reference_id>  (51) 
3

>  <inspiration_ids>  (51) 
[3, 161]

>  <energy_score>  (51) 
9.023976572632819

>  <distance_score>  (51) 
2.927429989717989

>  <path>  (51) 
/opt/xchem-fragalysis-2/maxwin/BulkDock/SCRATCH/505732/C1392-P3/C1392-P3.minimised.mol

>  <scratch_subdir>  (51) 
/opt/xchem-fragalysis-2/maxwin/BulkDock/SCRATCH/505732/C1392-P3

>  <fragmenstein_runtime>  (51) 
5.739185094833374

>  <fragmenstein_outcome>  (51) 
too moved

>  <fragmenstein_mode>  (51) 
expansion

>  <fragmenstein_error>  (51) 


$$$$
C1392-P161
     RDKit          3D

 37 39  0  0  0  0  0  0  0  0999 V2000
  -14.4128  -20.0903   38.2747 C   0  0  0  0  0  0  0  0  0  0  0  0
  -15.3150  -21.1070   37.7033 N   0  0  0  0  0  0  0  0  0  0  0  0
  -15.5450  -22.1300   38.7331 C   0  0  0  0  0  0  0  0  0  0  0  0
  -14.6504  -21.6602   36.4619 N   0  0  0  0  0  0  0  0  0  0  0  0
  -15.1189  -23.0023   36.0454 C   0  0  0  0  0  0  0  0  0  0  0  0
  -16.5037  -23.1541   35.7366 O   0  0  0  0  0  0  0  0  0  0  0  0
  -17.0929  -22.0570   35.1900 C   0  0  0  0  0  0  0  0  0  0  0  0
  -18.4616  -22.1778   34.9584 C   0  0  0  0  0  0  0  0  0  0  0  0
  -19.1678  -21.0950   34.4648 C   0  0  0  0  0  0  0  0  0  0  0  0
  -18.4926  -19.9112   34.2098 C   0  0  0  0  0  0  0  0  0  0  0  0
  -19.1738  -18.9148   33.6328 F   0  0  0  0  0  0  0  0  0  0  0  0
  -17.1281  -19.7723   34.4652 C   0  0  0  0  0  0  0  0  0  0  0  0
  -16.4038  -20.8637   34.9425 C   0  0  0  0  0  0  0  0  0  0  0  0
  -14.9315  -20.7692   35.2971 C   0  0  0  0  0  0  0  0  0  0  0  0
  -13.9035  -21.0756   34.1985 C   0  0  0  0  0  0  0  0  0  0  0  0
  -14.2165  -21.7631   33.0109 C   0  0  0  0  0  0  0  0  0  0  0  0
  -13.2163  -22.2011   32.1471 C   0  0  0  0  0  0  0  0  0  0  0  0
  -11.8963  -21.9321   32.4590 C   0  0  0  0  0  0  0  0  0  0  0  0
  -11.5506  -21.2324   33.6142 C   0  0  0  0  0  0  0  0  0  0  0  0
  -12.5455  -20.8042   34.4758 C   0  0  0  0  0  0  0  0  0  0  0  0
  -14.8305  -19.6829   39.2029 H   0  0  0  0  0  0  0  0  0  0  0  0
  -13.4199  -20.4982   38.4928 H   0  0  0  0  0  0  0  0  0  0  0  0
  -14.2895  -19.2350   37.6032 H   0  0  0  0  0  0  0  0  0  0  0  0
  -16.2922  -22.8623   38.4114 H   0  0  0  0  0  0  0  0  0  0  0  0
  -15.9636  -21.6694   39.6361 H   0  0  0  0  0  0  0  0  0  0  0  0
  -14.6286  -22.6552   39.0206 H   0  0  0  0  0  0  0  0  0  0  0  0
  -14.5481  -23.3681   35.1878 H   0  0  0  0  0  0  0  0  0  0  0  0
  -14.9096  -23.7369   36.8273 H   0  0  0  0  0  0  0  0  0  0  0  0
  -18.9685  -23.1150   35.1688 H   0  0  0  0  0  0  0  0  0  0  0  0
  -20.2288  -21.1710   34.2547 H   0  0  0  0  0  0  0  0  0  0  0  0
  -16.6403  -18.8195   34.3084 H   0  0  0  0  0  0  0  0  0  0  0  0
  -14.7385  -19.7252   35.5769 H   0  0  0  0  0  0  0  0  0  0  0  0
  -15.2453  -22.0316   32.7775 H   0  0  0  0  0  0  0  0  0  0  0  0
  -13.4689  -22.7842   31.2667 H   0  0  0  0  0  0  0  0  0  0  0  0
  -11.1232  -22.3393   31.8414 H   0  0  0  0  0  0  0  0  0  0  0  0
  -10.5113  -21.0718   33.8785 H   0  0  0  0  0  0  0  0  0  0  0  0
  -12.2625  -20.3040   35.3993 H   0  0  0  0  0  0  0  0  0  0  0  0
  1  2  1  0
  2  3  1  0
  2  4  1  0
  4  5  1  0
  5  6  1  0
  6  7  1  0
  7  8  2  0
  8  9  1  0
  9 10  2  0
 10 11  1  0
 10 12  1  0
 12 13  2  0
 13 14  1  0
 14 15  1  0
 15 16  2  0
 16 17  1  0
 17 18  2  0
 18 19  1  0
 19 20  2  0
 14  4  1  0
 20 15  1  0
 13  7  1  0
  1 21  1  0
  1 22  1  0
  1 23  1  0
  3 24  1  0
  3 25  1  0
  3 26  1  0
  5 27  1  0
  5 28  1  0
  8 29  1  0
  9 30  1  0
 12 31  1  0
 14 32  1  0
 16 33  1  0
 17 34  1  0
 18 35  1  0
 19 36  1  0
 20 37  1  0
M  END
>  <Energy>  (52) 
94.998150767334124

>  <compound_id>  (52) 
1392

>  <target_id>  (52) 
1

>  <reference_id>  (52) 
161

>  <inspiration_ids>  (52) 
[3, 161]

>  <energy_score>  (52) 
-32.228890707263304

>  <distance_score>  (52) 
2.4723443750914

>  <path>  (52) 
/opt/xchem-fragalysis-2/maxwin/BulkDock/SCRATCH/505732/C1392-P161/C1392-P161.minimised.mol

>  <scratch_subdir>  (52) 
/opt/xchem-fragalysis-2/maxwin/BulkDock/SCRATCH/505732/C1392-P161

>  <fragmenstein_runtime>  (52) 
5.574675798416138

>  <fragmenstein_outcome>  (52) 
too moved

>  <fragmenstein_mode>  (52) 
expansion

>  <fragmenstein_error>  (52) 


$$$$
C1394-P4
     RDKit          3D

 38 39  0  0  0  0  0  0  0  0999 V2000
   14.1197    3.7121   15.3895 C   0  0  0  0  0  0  0  0  0  0  0  0
   15.1878    3.4100   14.3545 C   0  0  0  0  0  0  0  0  0  0  0  0
   14.4961    3.0165   12.7357 S   0  0  0  0  0  0  0  0  0  0  0  0
   13.4685    2.0049   12.8727 O   0  0  0  0  0  0  0  0  0  0  0  0
   14.1892    4.2759   12.0851 O   0  0  0  0  0  0  0  0  0  0  0  0
   15.8404    2.3855   11.8486 N   0  0  0  0  0  0  0  0  0  0  0  0
   15.9404    0.9514   11.8365 C   0  0  0  0  0  0  0  0  0  0  0  0
   15.5848    0.1767   10.7447 C   0  0  0  0  0  0  0  0  0  0  0  0
   15.2768   -1.1641   10.9612 C   0  0  0  0  0  0  0  0  0  0  0  0
   15.1441   -1.6473   12.2703 C   0  0  0  0  0  0  0  0  0  0  0  0
   15.4687   -0.8284   13.3485 C   0  0  0  0  0  0  0  0  0  0  0  0
   15.1540   -1.0414   14.8125 C   0  0  0  0  0  0  0  0  0  0  0  0
   14.8236    0.2512   15.4646 N   0  0  0  0  0  0  0  0  0  0  0  0
   14.0486   -1.9825   15.2081 C   0  0  0  0  0  0  0  0  0  0  0  0
   12.8073   -2.0226   14.5565 C   0  0  0  0  0  0  0  0  0  0  0  0
   11.8112   -2.8696   15.0209 C   0  0  0  0  0  0  0  0  0  0  0  0
   12.0419   -3.6434   16.1521 C   0  0  0  0  0  0  0  0  0  0  0  0
   13.2291   -3.5433   16.8625 C   0  0  0  0  0  0  0  0  0  0  0  0
   14.2361   -2.7254   16.3868 C   0  0  0  0  0  0  0  0  0  0  0  0
   16.1192    0.3601   13.0632 C   0  0  0  0  0  0  0  0  0  0  0  0
   13.5051    4.5617   15.0751 H   0  0  0  0  0  0  0  0  0  0  0  0
   14.5790    3.9588   16.3514 H   0  0  0  0  0  0  0  0  0  0  0  0
   13.4526    2.8590   15.5367 H   0  0  0  0  0  0  0  0  0  0  0  0
   15.8367    4.2805   14.2133 H   0  0  0  0  0  0  0  0  0  0  0  0
   15.8026    2.5911   14.7092 H   0  0  0  0  0  0  0  0  0  0  0  0
   15.8898    2.8440   10.9382 H   0  0  0  0  0  0  0  0  0  0  0  0
   15.4822    0.6073    9.7554 H   0  0  0  0  0  0  0  0  0  0  0  0
   15.0195   -1.8047   10.1243 H   0  0  0  0  0  0  0  0  0  0  0  0
   14.7521   -2.6504   12.4303 H   0  0  0  0  0  0  0  0  0  0  0  0
   16.0939   -1.3999   15.2549 H   0  0  0  0  0  0  0  0  0  0  0  0
   13.9396    0.5613   15.0492 H   0  0  0  0  0  0  0  0  0  0  0  0
   14.6235    0.0634   16.4435 H   0  0  0  0  0  0  0  0  0  0  0  0
   12.6124   -1.4047   13.6822 H   0  0  0  0  0  0  0  0  0  0  0  0
   10.8658   -2.9376   14.4923 H   0  0  0  0  0  0  0  0  0  0  0  0
   11.2978   -4.3570   16.4791 H   0  0  0  0  0  0  0  0  0  0  0  0
   13.3619   -4.1166   17.7724 H   0  0  0  0  0  0  0  0  0  0  0  0
   15.1724   -2.6656   16.9378 H   0  0  0  0  0  0  0  0  0  0  0  0
   16.5372    0.9430   13.8752 H   0  0  0  0  0  0  0  0  0  0  0  0
  1  2  1  0
  2  3  1  0
  3  4  2  0
  3  5  2  0
  3  6  1  0
  6  7  1  0
  7  8  2  0
  8  9  1  0
  9 10  2  0
 10 11  1  0
 11 12  1  0
 12 13  1  0
 12 14  1  0
 14 15  2  0
 15 16  1  0
 16 17  2  0
 17 18  1  0
 18 19  2  0
 11 20  2  0
 20  7  1  0
 19 14  1  0
  1 21  1  0
  1 22  1  0
  1 23  1  0
  2 24  1  0
  2 25  1  0
  6 26  1  0
  8 27  1  0
  9 28  1  0
 10 29  1  0
 12 30  1  0
 13 31  1  0
 13 32  1  0
 15 33  1  0
 16 34  1  0
 17 35  1  0
 18 36  1  0
 19 37  1  0
 20 38  1  0
M  END
>  <Energy>  (53) 
-3.0741584598178204

>  <compound_id>  (53) 
1394

>  <target_id>  (53) 
1

>  <reference_id>  (53) 
4

>  <inspiration_ids>  (53) 
[4, 6]

>  <energy_score>  (53) 
-20.597667616852

>  <distance_score>  (53) 
2.0359201215699883

>  <path>  (53) 
/opt/xchem-fragalysis-2/maxwin/BulkDock/SCRATCH/505732/C1394-P4/C1394-P4.minimised.mol

>  <scratch_subdir>  (53) 
/opt/xchem-fragalysis-2/maxwin/BulkDock/SCRATCH/505732/C1394-P4

>  <fragmenstein_runtime>  (53) 
4.6196770668029785

>  <fragmenstein_outcome>  (53) 
too moved

>  <fragmenstein_mode>  (53) 
expansion

>  <fragmenstein_error>  (53) 


$$$$
C1394-P6
     RDKit          3D

 38 39  0  0  0  0  0  0  0  0999 V2000
   14.4517    3.6092   15.6639 C   0  0  0  0  0  0  0  0  0  0  0  0
   13.8313    3.0485   14.3940 C   0  0  0  0  0  0  0  0  0  0  0  0
   14.9848    3.1264   13.0054 S   0  0  0  0  0  0  0  0  0  0  0  0
   15.0330    4.5067   12.5631 O   0  0  0  0  0  0  0  0  0  0  0  0
   16.2056    2.4239   13.3432 O   0  0  0  0  0  0  0  0  0  0  0  0
   14.1712    2.2985   11.7272 N   0  0  0  0  0  0  0  0  0  0  0  0
   14.5129    0.9082   11.5982 C   0  0  0  0  0  0  0  0  0  0  0  0
   15.4498    0.4560   10.6711 C   0  0  0  0  0  0  0  0  0  0  0  0
   16.0547   -0.7803   10.8735 C   0  0  0  0  0  0  0  0  0  0  0  0
   15.8337   -1.4562   12.0756 C   0  0  0  0  0  0  0  0  0  0  0  0
   14.9228   -0.9519   13.0097 C   0  0  0  0  0  0  0  0  0  0  0  0
   15.0229   -1.2461   14.4917 C   0  0  0  0  0  0  0  0  0  0  0  0
   15.2548    0.0204   15.2209 N   0  0  0  0  0  0  0  0  0  0  0  0
   13.8950   -2.0025   15.1504 C   0  0  0  0  0  0  0  0  0  0  0  0
   12.6116   -2.1496   14.6036 C   0  0  0  0  0  0  0  0  0  0  0  0
   11.6836   -2.9877   15.2127 C   0  0  0  0  0  0  0  0  0  0  0  0
   12.0294   -3.6681   16.3749 C   0  0  0  0  0  0  0  0  0  0  0  0
   13.2505   -3.4452   16.9930 C   0  0  0  0  0  0  0  0  0  0  0  0
   14.1814   -2.6233   16.3808 C   0  0  0  0  0  0  0  0  0  0  0  0
   14.1127    0.1046   12.6417 C   0  0  0  0  0  0  0  0  0  0  0  0
   15.3406    3.0410   15.9547 H   0  0  0  0  0  0  0  0  0  0  0  0
   13.7334    3.5682   16.4882 H   0  0  0  0  0  0  0  0  0  0  0  0
   14.7536    4.6519   15.5231 H   0  0  0  0  0  0  0  0  0  0  0  0
   13.5372    2.0206   14.5769 H   0  0  0  0  0  0  0  0  0  0  0  0
   12.9469    3.6259   14.1088 H   0  0  0  0  0  0  0  0  0  0  0  0
   14.2562    2.8546   10.8751 H   0  0  0  0  0  0  0  0  0  0  0  0
   15.7615    1.0819    9.8417 H   0  0  0  0  0  0  0  0  0  0  0  0
   16.7976   -1.1504   10.1731 H   0  0  0  0  0  0  0  0  0  0  0  0
   16.4454   -2.3230   12.3196 H   0  0  0  0  0  0  0  0  0  0  0  0
   15.9305   -1.8537   14.6195 H   0  0  0  0  0  0  0  0  0  0  0  0
   15.6073   -0.2016   16.1483 H   0  0  0  0  0  0  0  0  0  0  0  0
   16.0157    0.5179   14.7464 H   0  0  0  0  0  0  0  0  0  0  0  0
   12.3304   -1.6814   13.6651 H   0  0  0  0  0  0  0  0  0  0  0  0
   10.7170   -3.1499   14.7434 H   0  0  0  0  0  0  0  0  0  0  0  0
   11.3524   -4.3988   16.7980 H   0  0  0  0  0  0  0  0  0  0  0  0
   13.4830   -3.9410   17.9293 H   0  0  0  0  0  0  0  0  0  0  0  0
   15.1572   -2.5012   16.8455 H   0  0  0  0  0  0  0  0  0  0  0  0
   13.3608    0.4599   13.3364 H   0  0  0  0  0  0  0  0  0  0  0  0
  1  2  1  0
  2  3  1  0
  3  4  2  0
  3  5  2  0
  3  6  1  0
  6  7  1  0
  7  8  2  0
  8  9  1  0
  9 10  2  0
 10 11  1  0
 11 12  1  0
 12 13  1  0
 12 14  1  0
 14 15  2  0
 15 16  1  0
 16 17  2  0
 17 18  1  0
 18 19  2  0
 11 20  2  0
 20  7  1  0
 19 14  1  0
  1 21  1  0
  1 22  1  0
  1 23  1  0
  2 24  1  0
  2 25  1  0
  6 26  1  0
  8 27  1  0
  9 28  1  0
 10 29  1  0
 12 30  1  0
 13 31  1  0
 13 32  1  0
 15 33  1  0
 16 34  1  0
 17 35  1  0
 18 36  1  0
 19 37  1  0
 20 38  1  0
M  END
>  <Energy>  (54) 
-4.3668537812417911

>  <compound_id>  (54) 
1394

>  <target_id>  (54) 
1

>  <reference_id>  (54) 
6

>  <inspiration_ids>  (54) 
[4, 6]

>  <energy_score>  (54) 
-21.89036293827526

>  <distance_score>  (54) 
1.7341365443356542

>  <path>  (54) 
/opt/xchem-fragalysis-2/maxwin/BulkDock/SCRATCH/505732/C1394-P6/C1394-P6.minimised.mol

>  <scratch_subdir>  (54) 
/opt/xchem-fragalysis-2/maxwin/BulkDock/SCRATCH/505732/C1394-P6

>  <fragmenstein_runtime>  (54) 
4.761850357055664

>  <fragmenstein_outcome>  (54) 
too moved

>  <fragmenstein_mode>  (54) 
expansion

>  <fragmenstein_error>  (54) 


$$$$
C1396-P4
     RDKit          3D

 28 29  0  0  0  0  0  0  0  0999 V2000
   13.5627    0.9548   13.9477 N   0  0  0  0  0  0  0  0  0  0  0  0
   14.4504   -0.2055   14.0458 C   0  0  0  0  0  0  0  0  0  0  0  0
   15.0040   -0.6299   12.6884 C   0  0  0  0  0  0  0  0  0  0  0  0
   15.4122   -1.9491   12.4350 C   0  0  0  0  0  0  0  0  0  0  0  0
   16.0370   -2.2917   11.2343 C   0  0  0  0  0  0  0  0  0  0  0  0
   16.2745   -1.3236   10.2651 C   0  0  0  0  0  0  0  0  0  0  0  0
   15.8768   -0.0114   10.4890 C   0  0  0  0  0  0  0  0  0  0  0  0
   15.2550    0.3322   11.6911 C   0  0  0  0  0  0  0  0  0  0  0  0
   13.7976   -1.3052   14.8731 C   0  0  0  0  0  0  0  0  0  0  0  0
   12.5485   -1.8648   14.5507 C   0  0  0  0  0  0  0  0  0  0  0  0
   12.0126   -2.8958   15.3258 C   0  0  0  0  0  0  0  0  0  0  0  0
   12.7208   -3.3846   16.4238 C   0  0  0  0  0  0  0  0  0  0  0  0
   13.9528   -2.8343   16.7490 C   0  0  0  0  0  0  0  0  0  0  0  0
   14.6202   -3.3324   17.8268 O   0  0  0  0  0  0  0  0  0  0  0  0
   14.4924   -1.8039   15.9894 C   0  0  0  0  0  0  0  0  0  0  0  0
   12.7847    0.6909   13.3468 H   0  0  0  0  0  0  0  0  0  0  0  0
   13.1435    1.1276   14.8622 H   0  0  0  0  0  0  0  0  0  0  0  0
   15.3268    0.1524   14.6034 H   0  0  0  0  0  0  0  0  0  0  0  0
   15.2748   -2.7332   13.1760 H   0  0  0  0  0  0  0  0  0  0  0  0
   16.3546   -3.3170   11.0662 H   0  0  0  0  0  0  0  0  0  0  0  0
   16.7845   -1.5919    9.3458 H   0  0  0  0  0  0  0  0  0  0  0  0
   16.0688    0.7532    9.7414 H   0  0  0  0  0  0  0  0  0  0  0  0
   14.9913    1.3750   11.8599 H   0  0  0  0  0  0  0  0  0  0  0  0
   11.9928   -1.5217   13.6811 H   0  0  0  0  0  0  0  0  0  0  0  0
   11.0577   -3.3380   15.0513 H   0  0  0  0  0  0  0  0  0  0  0  0
   12.3227   -4.2096   17.0091 H   0  0  0  0  0  0  0  0  0  0  0  0
   15.4590   -2.8537   17.9312 H   0  0  0  0  0  0  0  0  0  0  0  0
   15.4654   -1.3924   16.2451 H   0  0  0  0  0  0  0  0  0  0  0  0
  1  2  1  0
  2  3  1  0
  3  4  2  0
  4  5  1  0
  5  6  2  0
  6  7  1  0
  7  8  2  0
  2  9  1  0
  9 10  2  0
 10 11  1  0
 11 12  2  0
 12 13  1  0
 13 14  1  0
 13 15  2  0
  8  3  1  0
 15  9  1  0
  1 16  1  0
  1 17  1  0
  2 18  1  0
  4 19  1  0
  5 20  1  0
  6 21  1  0
  7 22  1  0
  8 23  1  0
 10 24  1  0
 11 25  1  0
 12 26  1  0
 14 27  1  0
 15 28  1  0
M  END
>  <Energy>  (55) 
24.410026349747902

>  <compound_id>  (55) 
1396

>  <target_id>  (55) 
1

>  <reference_id>  (55) 
4

>  <inspiration_ids>  (55) 
[4, 10]

>  <energy_score>  (55) 
-19.525084363811715

>  <distance_score>  (55) 
0.6131344620771665

>  <path>  (55) 
/opt/xchem-fragalysis-2/maxwin/BulkDock/SCRATCH/505732/C1396-P4/C1396-P4.minimised.mol

>  <scratch_subdir>  (55) 
/opt/xchem-fragalysis-2/maxwin/BulkDock/SCRATCH/505732/C1396-P4

>  <fragmenstein_runtime>  (55) 
1.3645925521850586

>  <fragmenstein_outcome>  (55) 
acceptable

>  <fragmenstein_mode>  (55) 
expansion

>  <fragmenstein_error>  (55) 


$$$$
C1396-P10
     RDKit          3D

 28 29  0  0  0  0  0  0  0  0999 V2000
   13.6986    1.1372   14.3145 N   0  0  0  0  0  0  0  0  0  0  0  0
   14.4599   -0.1122   14.2455 C   0  0  0  0  0  0  0  0  0  0  0  0
   14.9487   -0.4853   12.8480 C   0  0  0  0  0  0  0  0  0  0  0  0
   15.5957   -1.7180   12.6366 C   0  0  0  0  0  0  0  0  0  0  0  0
   16.1904   -2.0235   11.4108 C   0  0  0  0  0  0  0  0  0  0  0  0
   16.1641   -1.0983   10.3751 C   0  0  0  0  0  0  0  0  0  0  0  0
   15.5133    0.1172   10.5512 C   0  0  0  0  0  0  0  0  0  0  0  0
   14.9052    0.4180   11.7727 C   0  0  0  0  0  0  0  0  0  0  0  0
   13.7199   -1.2124   14.9870 C   0  0  0  0  0  0  0  0  0  0  0  0
   12.4618   -1.6822   14.5789 C   0  0  0  0  0  0  0  0  0  0  0  0
   11.8600   -2.7513   15.2450 C   0  0  0  0  0  0  0  0  0  0  0  0
   12.5087   -3.3566   16.3216 C   0  0  0  0  0  0  0  0  0  0  0  0
   13.7356   -2.8714   16.7502 C   0  0  0  0  0  0  0  0  0  0  0  0
   14.3407   -3.4773   17.8092 O   0  0  0  0  0  0  0  0  0  0  0  0
   14.3386   -1.8042   16.1015 C   0  0  0  0  0  0  0  0  0  0  0  0
   13.4016    1.2753   15.2783 H   0  0  0  0  0  0  0  0  0  0  0  0
   14.3300    1.9065   14.1039 H   0  0  0  0  0  0  0  0  0  0  0  0
   15.3843    0.0963   14.8039 H   0  0  0  0  0  0  0  0  0  0  0  0
   15.6655   -2.4542   13.4353 H   0  0  0  0  0  0  0  0  0  0  0  0
   16.6906   -2.9780   11.2753 H   0  0  0  0  0  0  0  0  0  0  0  0
   16.6531   -1.3202    9.4337 H   0  0  0  0  0  0  0  0  0  0  0  0
   15.4798    0.8393    9.7398 H   0  0  0  0  0  0  0  0  0  0  0  0
   14.4106    1.3804   11.8762 H   0  0  0  0  0  0  0  0  0  0  0  0
   11.9598   -1.2335   13.7228 H   0  0  0  0  0  0  0  0  0  0  0  0
   10.9009   -3.1287   14.8986 H   0  0  0  0  0  0  0  0  0  0  0  0
   12.0614   -4.2123   16.8181 H   0  0  0  0  0  0  0  0  0  0  0  0
   15.1672   -3.0124   18.0156 H   0  0  0  0  0  0  0  0  0  0  0  0
   15.3111   -1.4497   16.4313 H   0  0  0  0  0  0  0  0  0  0  0  0
  1  2  1  0
  2  3  1  0
  3  4  2  0
  4  5  1  0
  5  6  2  0
  6  7  1  0
  7  8  2  0
  2  9  1  0
  9 10  2  0
 10 11  1  0
 11 12  2  0
 12 13  1  0
 13 14  1  0
 13 15  2  0
  8  3  1  0
 15  9  1  0
  1 16  1  0
  1 17  1  0
  2 18  1  0
  4 19  1  0
  5 20  1  0
  6 21  1  0
  7 22  1  0
  8 23  1  0
 10 24  1  0
 11 25  1  0
 12 26  1  0
 14 27  1  0
 15 28  1  0
M  END
>  <Energy>  (56) 
26.072988199307204

>  <compound_id>  (56) 
1396

>  <target_id>  (56) 
1

>  <reference_id>  (56) 
10

>  <inspiration_ids>  (56) 
[4, 10]

>  <energy_score>  (56) 
-17.862122514251553

>  <distance_score>  (56) 
0.6278807508892729

>  <path>  (56) 
/opt/xchem-fragalysis-2/maxwin/BulkDock/SCRATCH/505732/C1396-P10/C1396-P10.minimised.mol

>  <scratch_subdir>  (56) 
/opt/xchem-fragalysis-2/maxwin/BulkDock/SCRATCH/505732/C1396-P10

>  <fragmenstein_runtime>  (56) 
1.3982892036437988

>  <fragmenstein_outcome>  (56) 
acceptable

>  <fragmenstein_mode>  (56) 
expansion

>  <fragmenstein_error>  (56) 


$$$$
C1399-P4
     RDKit          3D

 49 51  0  0  0  0  0  0  0  0999 V2000
   15.4782   -2.1173   18.9580 C   0  0  0  0  0  0  0  0  0  0  0  0
   15.4597   -1.3772   17.6267 C   0  0  0  0  0  0  0  0  0  0  0  0
   15.2475   -2.2835   16.4129 C   0  0  0  0  0  0  0  0  0  0  0  0
   13.8000   -2.5505   16.0356 C   0  0  0  0  0  0  0  0  0  0  0  0
   13.1426   -3.6087   16.6812 C   0  0  0  0  0  0  0  0  0  0  0  0
   11.8489   -4.0435   16.3392 C   0  0  0  0  0  0  0  0  0  0  0  0
   11.0925   -3.3800   15.3981 C   0  0  0  0  0  0  0  0  0  0  0  0
    9.7456   -3.6922   15.0038 N   0  0  0  0  0  0  0  0  0  0  0  0
    8.6158   -4.4632   15.2425 C   0  0  0  0  0  0  0  0  0  0  0  0
    7.6734   -4.9582   16.1121 C   0  0  0  0  0  0  0  0  0  0  0  0
    6.3907   -5.6317   17.2963 C   0  0  0  0  0  0  0  0  0  0  0  0
    5.6484   -6.5173   16.8290 C   0  0  0  0  0  0  0  0  0  0  0  0
    6.4714   -6.7962   15.8013 C   0  0  0  0  0  0  0  0  0  0  0  0
    7.8499   -6.0607   15.3790 C   0  0  0  0  0  0  0  0  0  0  0  0
    8.5865   -7.1207   14.7569 O   0  0  0  0  0  0  0  0  0  0  0  0
   11.7574   -2.3040   14.7527 C   0  0  0  0  0  0  0  0  0  0  0  0
   13.0861   -1.8582   15.0381 C   0  0  0  0  0  0  0  0  0  0  0  0
   13.5826   -0.6264   14.2587 C   0  0  0  0  0  0  0  0  0  0  0  0
   14.2115    0.3795   15.1317 N   0  0  0  0  0  0  0  0  0  0  0  0
   14.4163   -0.8349   12.9931 C   0  0  0  0  0  0  0  0  0  0  0  0
   15.0015   -2.0542   12.6470 C   0  0  0  0  0  0  0  0  0  0  0  0
   15.7699   -2.1827   11.4861 C   0  0  0  0  0  0  0  0  0  0  0  0
   15.9839   -1.0910   10.6529 C   0  0  0  0  0  0  0  0  0  0  0  0
   15.4176    0.1348   10.9779 C   0  0  0  0  0  0  0  0  0  0  0  0
   14.6341    0.2580   12.1288 C   0  0  0  0  0  0  0  0  0  0  0  0
   15.1972   -3.1769   18.8798 H   0  0  0  0  0  0  0  0  0  0  0  0
   14.8303   -1.6244   19.6857 H   0  0  0  0  0  0  0  0  0  0  0  0
   16.4904   -2.0977   19.3774 H   0  0  0  0  0  0  0  0  0  0  0  0
   16.4182   -0.8753   17.5105 H   0  0  0  0  0  0  0  0  0  0  0  0
   14.7062   -0.5943   17.6617 H   0  0  0  0  0  0  0  0  0  0  0  0
   15.7633   -1.8574   15.5510 H   0  0  0  0  0  0  0  0  0  0  0  0
   15.7549   -3.2454   16.5707 H   0  0  0  0  0  0  0  0  0  0  0  0
   13.6532   -4.1498   17.4722 H   0  0  0  0  0  0  0  0  0  0  0  0
   11.4641   -4.9070   16.8635 H   0  0  0  0  0  0  0  0  0  0  0  0
    9.3930   -2.7768   14.6604 H   0  0  0  0  0  0  0  0  0  0  0  0
    7.5197   -3.6751   15.8904 H   0  0  0  0  0  0  0  0  0  0  0  0
    6.2316   -5.2717   18.3112 H   0  0  0  0  0  0  0  0  0  0  0  0
    4.7929   -6.8591   17.3304 H   0  0  0  0  0  0  0  0  0  0  0  0
    6.4472   -7.5591   15.0224 H   0  0  0  0  0  0  0  0  0  0  0  0
    9.4253   -7.1678   15.2589 H   0  0  0  0  0  0  0  0  0  0  0  0
   11.2194   -1.7551   13.9866 H   0  0  0  0  0  0  0  0  0  0  0  0
   12.6672   -0.1367   13.8909 H   0  0  0  0  0  0  0  0  0  0  0  0
   14.2297    1.2674   14.6457 H   0  0  0  0  0  0  0  0  0  0  0  0
   15.1857    0.1264   15.2537 H   0  0  0  0  0  0  0  0  0  0  0  0
   14.8746   -2.9291   13.2710 H   0  0  0  0  0  0  0  0  0  0  0  0
   16.2045   -3.1475   11.2379 H   0  0  0  0  0  0  0  0  0  0  0  0
   16.5910   -1.1977    9.7598 H   0  0  0  0  0  0  0  0  0  0  0  0
   15.5810    0.9949   10.3391 H   0  0  0  0  0  0  0  0  0  0  0  0
   14.1942    1.2256   12.3533 H   0  0  0  0  0  0  0  0  0  0  0  0
  1  2  1  0
  2  3  1  0
  3  4  1  0
  4  5  2  0
  5  6  1  0
  6  7  2  0
  7  8  1  0
  8  9  1  0
  9 10  2  0
 10 11  1  0
 11 12  2  0
 12 13  1  0
 13 14  2  0
 14 15  1  0
  7 16  1  0
 16 17  2  0
 17 18  1  0
 18 19  1  0
 18 20  1  0
 20 21  2  0
 21 22  1  0
 22 23  2  0
 23 24  1  0
 24 25  2  0
 17  4  1  0
 25 20  1  0
 14  9  1  0
  1 26  1  0
  1 27  1  0
  1 28  1  0
  2 29  1  0
  2 30  1  0
  3 31  1  0
  3 32  1  0
  5 33  1  0
  6 34  1  0
  8 35  1  0
 10 36  1  0
 11 37  1  0
 12 38  1  0
 13 39  1  0
 15 40  1  0
 16 41  1  0
 18 42  1  0
 19 43  1  0
 19 44  1  0
 21 45  1  0
 22 46  1  0
 23 47  1  0
 24 48  1  0
 25 49  1  0
M  END
>  <Energy>  (57) 
512.70699288710694

>  <compound_id>  (57) 
1399

>  <target_id>  (57) 
1

>  <reference_id>  (57) 
4

>  <inspiration_ids>  (57) 
[4, 20]

>  <energy_score>  (57) 
414.58871336356293

>  <distance_score>  (57) 
0.8150312400810943

>  <path>  (57) 
/opt/xchem-fragalysis-2/maxwin/BulkDock/SCRATCH/505732/C1399-P4/C1399-P4.minimised.mol

>  <scratch_subdir>  (57) 
/opt/xchem-fragalysis-2/maxwin/BulkDock/SCRATCH/505732/C1399-P4

>  <fragmenstein_runtime>  (57) 
4.471138954162598

>  <fragmenstein_outcome>  (57) 
too contorted

>  <fragmenstein_mode>  (57) 
expansion

>  <fragmenstein_error>  (57) 


$$$$
C1399-P20
     RDKit          3D

 49 51  0  0  0  0  0  0  0  0999 V2000
   16.0745   -0.3292   17.9147 C   0  0  0  0  0  0  0  0  0  0  0  0
   14.6648   -0.8298   17.6419 C   0  0  0  0  0  0  0  0  0  0  0  0
   14.5204   -1.3369   16.2061 C   0  0  0  0  0  0  0  0  0  0  0  0
   13.1069   -1.7885   15.8937 C   0  0  0  0  0  0  0  0  0  0  0  0
   12.7525   -3.0638   16.3241 C   0  0  0  0  0  0  0  0  0  0  0  0
   11.5062   -3.6003   16.0050 C   0  0  0  0  0  0  0  0  0  0  0  0
   10.4874   -2.8610   15.3623 C   0  0  0  0  0  0  0  0  0  0  0  0
    9.2343   -3.5596   14.9888 N   0  0  0  0  0  0  0  0  0  0  0  0
    7.6750   -3.6931   15.5895 C   0  0  0  0  0  0  0  0  0  0  0  0
    6.7702   -2.6143   14.9744 C   0  0  0  0  0  0  0  0  0  0  0  0
    5.2692   -2.7866   15.0677 C   0  0  0  0  0  0  0  0  0  0  0  0
    4.5541   -3.9392   16.0202 C   0  0  0  0  0  0  0  0  0  0  0  0
    5.3651   -5.4113   16.6167 C   0  0  0  0  0  0  0  0  0  0  0  0
    6.9480   -5.4486   16.0253 C   0  0  0  0  0  0  0  0  0  0  0  0
    7.3301   -6.6222   15.6004 O   0  0  0  0  0  0  0  0  0  0  0  0
   10.8078   -1.5508   15.0224 C   0  0  0  0  0  0  0  0  0  0  0  0
   12.1460   -1.0467   15.1589 C   0  0  0  0  0  0  0  0  0  0  0  0
   12.5061    0.2190   14.3639 C   0  0  0  0  0  0  0  0  0  0  0  0
   12.7837    1.3198   15.2973 N   0  0  0  0  0  0  0  0  0  0  0  0
   13.6025    0.0419   13.2879 C   0  0  0  0  0  0  0  0  0  0  0  0
   13.9977   -1.2301   12.8239 C   0  0  0  0  0  0  0  0  0  0  0  0
   14.9971   -1.3885   11.8582 C   0  0  0  0  0  0  0  0  0  0  0  0
   15.6045   -0.2713   11.3004 C   0  0  0  0  0  0  0  0  0  0  0  0
   15.2048    0.9995   11.7035 C   0  0  0  0  0  0  0  0  0  0  0  0
   14.2126    1.1549   12.6805 C   0  0  0  0  0  0  0  0  0  0  0  0
   16.8094   -1.1268   17.7663 H   0  0  0  0  0  0  0  0  0  0  0  0
   16.1582    0.0225   18.9477 H   0  0  0  0  0  0  0  0  0  0  0  0
   16.3305    0.5028   17.2509 H   0  0  0  0  0  0  0  0  0  0  0  0
   13.9549   -0.0167   17.8302 H   0  0  0  0  0  0  0  0  0  0  0  0
   14.4307   -1.6317   18.3513 H   0  0  0  0  0  0  0  0  0  0  0  0
   15.2030   -2.1825   16.0438 H   0  0  0  0  0  0  0  0  0  0  0  0
   14.8661   -0.5688   15.5128 H   0  0  0  0  0  0  0  0  0  0  0  0
   13.4652   -3.6814   16.8669 H   0  0  0  0  0  0  0  0  0  0  0  0
   11.3540   -4.6267   16.3155 H   0  0  0  0  0  0  0  0  0  0  0  0
    9.4998   -4.5228   15.2431 H   0  0  0  0  0  0  0  0  0  0  0  0
    7.2038   -1.7763   14.4345 H   0  0  0  0  0  0  0  0  0  0  0  0
    4.6197   -2.0218   14.6406 H   0  0  0  0  0  0  0  0  0  0  0  0
    3.4922   -3.7559   15.9748 H   0  0  0  0  0  0  0  0  0  0  0  0
    4.8734   -6.2892   16.9761 H   0  0  0  0  0  0  0  0  0  0  0  0
    8.2192   -6.4573   15.2300 H   0  0  0  0  0  0  0  0  0  0  0  0
   10.0576   -0.9282   14.5440 H   0  0  0  0  0  0  0  0  0  0  0  0
   11.6125    0.5160   13.7980 H   0  0  0  0  0  0  0  0  0  0  0  0
   12.7730    2.1972   14.7878 H   0  0  0  0  0  0  0  0  0  0  0  0
   13.7270    1.2080   15.6578 H   0  0  0  0  0  0  0  0  0  0  0  0
   13.5250   -2.1325   13.2053 H   0  0  0  0  0  0  0  0  0  0  0  0
   15.2865   -2.3882   11.5421 H   0  0  0  0  0  0  0  0  0  0  0  0
   16.3792   -0.3888   10.5486 H   0  0  0  0  0  0  0  0  0  0  0  0
   15.6673    1.8777   11.2597 H   0  0  0  0  0  0  0  0  0  0  0  0
   13.9260    2.1658   12.9570 H   0  0  0  0  0  0  0  0  0  0  0  0
  1  2  1  0
  2  3  1  0
  3  4  1  0
  4  5  2  0
  5  6  1  0
  6  7  2  0
  7  8  1  0
  8  9  1  0
  9 10  2  0
 10 11  1  0
 11 12  2  0
 12 13  1  0
 13 14  2  0
 14 15  1  0
  7 16  1  0
 16 17  2  0
 17 18  1  0
 18 19  1  0
 18 20  1  0
 20 21  2  0
 21 22  1  0
 22 23  2  0
 23 24  1  0
 24 25  2  0
 17  4  1  0
 25 20  1  0
 14  9  1  0
  1 26  1  0
  1 27  1  0
  1 28  1  0
  2 29  1  0
  2 30  1  0
  3 31  1  0
  3 32  1  0
  5 33  1  0
  6 34  1  0
  8 35  1  0
 10 36  1  0
 11 37  1  0
 12 38  1  0
 13 39  1  0
 15 40  1  0
 16 41  1  0
 18 42  1  0
 19 43  1  0
 19 44  1  0
 21 45  1  0
 22 46  1  0
 23 47  1  0
 24 48  1  0
 25 49  1  0
M  END
>  <Energy>  (58) 
308.51934458966838

>  <compound_id>  (58) 
1399

>  <target_id>  (58) 
1

>  <reference_id>  (58) 
20

>  <inspiration_ids>  (58) 
[4, 20]

>  <energy_score>  (58) 
210.4010650661162

>  <distance_score>  (58) 
1.7723359048056055

>  <path>  (58) 
/opt/xchem-fragalysis-2/maxwin/BulkDock/SCRATCH/505732/C1399-P20/C1399-P20.minimised.mol

>  <scratch_subdir>  (58) 
/opt/xchem-fragalysis-2/maxwin/BulkDock/SCRATCH/505732/C1399-P20

>  <fragmenstein_runtime>  (58) 
6.45668888092041

>  <fragmenstein_outcome>  (58) 
too moved

>  <fragmenstein_mode>  (58) 
expansion

>  <fragmenstein_error>  (58) 


$$$$
C1402-P4
     RDKit          3D

 38 39  0  0  0  0  0  0  0  0999 V2000
   15.2749   -3.0060   11.6681 C   0  0  0  0  0  0  0  0  0  0  0  0
   16.0250   -2.2566   12.6908 N   0  0  0  0  0  0  0  0  0  0  0  0
   15.9496   -0.8939   12.3382 C   0  0  0  0  0  0  0  0  0  0  0  0
   14.9768   -0.0522   12.9142 C   0  0  0  0  0  0  0  0  0  0  0  0
   14.6606   -0.1540   14.4033 C   0  0  0  0  0  0  0  0  0  0  0  0
   14.1186    1.0907   14.9652 N   0  0  0  0  0  0  0  0  0  0  0  0
   13.8643   -1.3361   14.9219 C   0  0  0  0  0  0  0  0  0  0  0  0
   12.6141   -1.6927   14.4034 C   0  0  0  0  0  0  0  0  0  0  0  0
   11.8738   -2.7218   14.9903 C   0  0  0  0  0  0  0  0  0  0  0  0
   12.3710   -3.4030   16.0996 C   0  0  0  0  0  0  0  0  0  0  0  0
   13.6103   -3.0625   16.6286 C   0  0  0  0  0  0  0  0  0  0  0  0
   14.3530   -2.0400   16.0420 C   0  0  0  0  0  0  0  0  0  0  0  0
   14.5136    1.0314   12.1446 C   0  0  0  0  0  0  0  0  0  0  0  0
   15.0713    1.3350   10.9014 C   0  0  0  0  0  0  0  0  0  0  0  0
   16.1662    0.6204   10.4454 C   0  0  0  0  0  0  0  0  0  0  0  0
   16.6211   -0.4674   11.1833 C   0  0  0  0  0  0  0  0  0  0  0  0
   18.1520   -1.1911   10.6743 S   0  0  0  0  0  0  0  0  0  0  0  0
   18.9270   -1.9507   12.0663 C   0  0  0  0  0  0  0  0  0  0  0  0
   17.8242   -2.1976    9.6821 O   0  0  0  0  0  0  0  0  0  0  0  0
   19.0094   -0.0747   10.3018 O   0  0  0  0  0  0  0  0  0  0  0  0
   15.9458   -3.7025   11.1633 H   0  0  0  0  0  0  0  0  0  0  0  0
   14.4428   -3.5368   12.1317 H   0  0  0  0  0  0  0  0  0  0  0  0
   14.8346   -2.3807   10.8835 H   0  0  0  0  0  0  0  0  0  0  0  0
   15.6496   -2.4787   13.6097 H   0  0  0  0  0  0  0  0  0  0  0  0
   15.6608   -0.2217   14.8577 H   0  0  0  0  0  0  0  0  0  0  0  0
   14.2413    1.0624   15.9742 H   0  0  0  0  0  0  0  0  0  0  0  0
   13.1083    1.1029   14.8169 H   0  0  0  0  0  0  0  0  0  0  0  0
   12.1971   -1.1632   13.5510 H   0  0  0  0  0  0  0  0  0  0  0  0
   10.9074   -2.9938   14.5738 H   0  0  0  0  0  0  0  0  0  0  0  0
   11.8044   -4.2217   16.5365 H   0  0  0  0  0  0  0  0  0  0  0  0
   13.9956   -3.5947   17.4937 H   0  0  0  0  0  0  0  0  0  0  0  0
   15.3163   -1.7800   16.4785 H   0  0  0  0  0  0  0  0  0  0  0  0
   13.7526    1.7012   12.5397 H   0  0  0  0  0  0  0  0  0  0  0  0
   14.7108    2.1940   10.3405 H   0  0  0  0  0  0  0  0  0  0  0  0
   16.6753    0.9286    9.5348 H   0  0  0  0  0  0  0  0  0  0  0  0
   18.9202   -1.2585   12.9102 H   0  0  0  0  0  0  0  0  0  0  0  0
   18.4312   -2.8894   12.3119 H   0  0  0  0  0  0  0  0  0  0  0  0
   19.9621   -2.1690   11.7903 H   0  0  0  0  0  0  0  0  0  0  0  0
  1  2  1  0
  2  3  1  0
  3  4  2  0
  4  5  1  0
  5  6  1  0
  5  7  1  0
  7  8  2  0
  8  9  1  0
  9 10  2  0
 10 11  1  0
 11 12  2  0
  4 13  1  0
 13 14  2  0
 14 15  1  0
 15 16  2  0
 16 17  1  0
 17 18  1  0
 17 19  2  0
 17 20  2  0
 16  3  1  0
 12  7  1  0
  1 21  1  0
  1 22  1  0
  1 23  1  0
  2 24  1  0
  5 25  1  0
  6 26  1  0
  6 27  1  0
  8 28  1  0
  9 29  1  0
 10 30  1  0
 11 31  1  0
 12 32  1  0
 13 33  1  0
 14 34  1  0
 15 35  1  0
 18 36  1  0
 18 37  1  0
 18 38  1  0
M  END
>  <Energy>  (59) 
92.774586497442485

>  <compound_id>  (59) 
1402

>  <target_id>  (59) 
1

>  <reference_id>  (59) 
4

>  <inspiration_ids>  (59) 
[4, 29]

>  <energy_score>  (59) 
-51.702678802385975

>  <distance_score>  (59) 
1.3225109486587172

>  <path>  (59) 
/opt/xchem-fragalysis-2/maxwin/BulkDock/SCRATCH/505732/C1402-P4/C1402-P4.minimised.mol

>  <scratch_subdir>  (59) 
/opt/xchem-fragalysis-2/maxwin/BulkDock/SCRATCH/505732/C1402-P4

>  <fragmenstein_runtime>  (59) 
2.7110605239868164

>  <fragmenstein_outcome>  (59) 
too moved

>  <fragmenstein_mode>  (59) 
expansion

>  <fragmenstein_error>  (59) 


$$$$
C1402-P29
     RDKit          3D

 38 39  0  0  0  0  0  0  0  0999 V2000
   14.4721   -2.9710   11.9443 C   0  0  0  0  0  0  0  0  0  0  0  0
   15.5514   -2.4684   12.8085 N   0  0  0  0  0  0  0  0  0  0  0  0
   15.7902   -1.1365   12.4084 C   0  0  0  0  0  0  0  0  0  0  0  0
   15.0146   -0.0722   12.9147 C   0  0  0  0  0  0  0  0  0  0  0  0
   14.5791   -0.0389   14.3835 C   0  0  0  0  0  0  0  0  0  0  0  0
   14.0197    1.2502   14.8022 N   0  0  0  0  0  0  0  0  0  0  0  0
   13.7365   -1.1738   14.9429 C   0  0  0  0  0  0  0  0  0  0  0  0
   12.4612   -1.4814   14.4469 C   0  0  0  0  0  0  0  0  0  0  0  0
   11.7144   -2.5193   15.0085 C   0  0  0  0  0  0  0  0  0  0  0  0
   12.2247   -3.2460   16.0820 C   0  0  0  0  0  0  0  0  0  0  0  0
   13.4796   -2.9445   16.6019 C   0  0  0  0  0  0  0  0  0  0  0  0
   14.2329   -1.9196   16.0328 C   0  0  0  0  0  0  0  0  0  0  0  0
   14.8838    1.0723   12.1022 C   0  0  0  0  0  0  0  0  0  0  0  0
   15.5502    1.1915   10.8793 C   0  0  0  0  0  0  0  0  0  0  0  0
   16.4373    0.2072   10.4750 C   0  0  0  0  0  0  0  0  0  0  0  0
   16.5765   -0.9333   11.2578 C   0  0  0  0  0  0  0  0  0  0  0  0
   17.9398   -2.0206   10.9211 S   0  0  0  0  0  0  0  0  0  0  0  0
   18.8923   -2.0096   12.4121 C   0  0  0  0  0  0  0  0  0  0  0  0
   17.4390   -3.3579   10.6741 O   0  0  0  0  0  0  0  0  0  0  0  0
   18.7602   -1.3657    9.9121 O   0  0  0  0  0  0  0  0  0  0  0  0
   14.7237   -2.8784   10.8832 H   0  0  0  0  0  0  0  0  0  0  0  0
   14.2746   -4.0184   12.1372 H   0  0  0  0  0  0  0  0  0  0  0  0
   13.5355   -2.4327   12.1132 H   0  0  0  0  0  0  0  0  0  0  0  0
   15.2731   -2.5833   13.7770 H   0  0  0  0  0  0  0  0  0  0  0  0
   15.5452   -0.0768   14.9092 H   0  0  0  0  0  0  0  0  0  0  0  0
   14.0224    1.2868   15.8185 H   0  0  0  0  0  0  0  0  0  0  0  0
   13.0226    1.2714   14.5641 H   0  0  0  0  0  0  0  0  0  0  0  0
   12.0420   -0.9190   13.6138 H   0  0  0  0  0  0  0  0  0  0  0  0
   10.7394   -2.7649   14.5932 H   0  0  0  0  0  0  0  0  0  0  0  0
   11.6599   -4.0764   16.4969 H   0  0  0  0  0  0  0  0  0  0  0  0
   13.8758   -3.5248   17.4326 H   0  0  0  0  0  0  0  0  0  0  0  0
   15.2166   -1.7048   16.4473 H   0  0  0  0  0  0  0  0  0  0  0  0
   14.2941    1.9222   12.4431 H   0  0  0  0  0  0  0  0  0  0  0  0
   15.4356    2.0975   10.2888 H   0  0  0  0  0  0  0  0  0  0  0  0
   17.0332    0.3550    9.5780 H   0  0  0  0  0  0  0  0  0  0  0  0
   18.3254   -2.4783   13.2174 H   0  0  0  0  0  0  0  0  0  0  0  0
   19.8054   -2.5817   12.2323 H   0  0  0  0  0  0  0  0  0  0  0  0
   19.1490   -0.9791   12.6656 H   0  0  0  0  0  0  0  0  0  0  0  0
  1  2  1  0
  2  3  1  0
  3  4  2  0
  4  5  1  0
  5  6  1  0
  5  7  1  0
  7  8  2  0
  8  9  1  0
  9 10  2  0
 10 11  1  0
 11 12  2  0
  4 13  1  0
 13 14  2  0
 14 15  1  0
 15 16  2  0
 16 17  1  0
 17 18  1  0
 17 19  2  0
 17 20  2  0
 16  3  1  0
 12  7  1  0
  1 21  1  0
  1 22  1  0
  1 23  1  0
  2 24  1  0
  5 25  1  0
  6 26  1  0
  6 27  1  0
  8 28  1  0
  9 29  1  0
 10 30  1  0
 11 31  1  0
 12 32  1  0
 13 33  1  0
 14 34  1  0
 15 35  1  0
 18 36  1  0
 18 37  1  0
 18 38  1  0
M  END
>  <Energy>  (60) 
93.089106642318697

>  <compound_id>  (60) 
1402

>  <target_id>  (60) 
1

>  <reference_id>  (60) 
29

>  <inspiration_ids>  (60) 
[4, 29]

>  <energy_score>  (60) 
-51.38815865751076

>  <distance_score>  (60) 
1.2122617958857278

>  <path>  (60) 
/opt/xchem-fragalysis-2/maxwin/BulkDock/SCRATCH/505732/C1402-P29/C1402-P29.minimised.mol

>  <scratch_subdir>  (60) 
/opt/xchem-fragalysis-2/maxwin/BulkDock/SCRATCH/505732/C1402-P29

>  <fragmenstein_runtime>  (60) 
2.174116849899292

>  <fragmenstein_outcome>  (60) 
too moved

>  <fragmenstein_mode>  (60) 
expansion

>  <fragmenstein_error>  (60) 


$$$$
C1404-P4
     RDKit          3D

 57 59  0  0  0  0  0  0  0  0999 V2000
   21.9914    2.7466   19.7819 C   0  0  0  0  0  0  0  0  0  0  0  0
   20.9415    1.6845   19.4991 C   0  0  0  0  0  0  0  0  0  0  0  0
   19.6874    2.2894   18.8713 C   0  0  0  0  0  0  0  0  0  0  0  0
   18.6113    1.2404   18.5742 C   0  0  0  0  0  0  0  0  0  0  0  0
   18.7909    0.0872   18.8315 O   0  0  0  0  0  0  0  0  0  0  0  0
   17.4912    1.9014   17.9677 N   0  0  0  0  0  0  0  0  0  0  0  0
   16.1917    1.3963   17.5652 C   0  0  0  0  0  0  0  0  0  0  0  0
   16.1989   -0.0560   17.0239 C   0  0  0  0  0  0  0  0  0  0  0  0
   17.1001   -0.2345   15.8939 N   0  0  0  0  0  0  0  0  0  0  0  0
   16.7328   -1.5634   15.3926 C   0  0  0  0  0  0  0  0  0  0  0  0
   15.2008   -1.6239   15.5765 C   0  0  0  0  0  0  0  0  0  0  0  0
   14.8302   -2.9038   16.3577 C   0  0  0  0  0  0  0  0  0  0  0  0
   13.3324   -3.0977   16.5794 C   0  0  0  0  0  0  0  0  0  0  0  0
   12.4233   -2.7775   15.4007 C   0  0  0  0  0  0  0  0  0  0  0  0
   12.8591   -1.5874   14.5640 C   0  0  0  0  0  0  0  0  0  0  0  0
   14.3688   -1.5695   14.2402 C   0  0  0  0  0  0  0  0  0  0  0  0
   14.6431   -0.3906   13.2330 C   0  0  0  0  0  0  0  0  0  0  0  0
   15.0303    0.8516   13.9238 N   0  0  0  0  0  0  0  0  0  0  0  0
   15.5356   -0.6675   12.0217 C   0  0  0  0  0  0  0  0  0  0  0  0
   16.2465   -1.8590   11.8217 C   0  0  0  0  0  0  0  0  0  0  0  0
   17.0268   -2.0561   10.6780 C   0  0  0  0  0  0  0  0  0  0  0  0
   17.1049   -1.0701    9.7011 C   0  0  0  0  0  0  0  0  0  0  0  0
   16.3874    0.1090    9.8577 C   0  0  0  0  0  0  0  0  0  0  0  0
   15.6075    0.3033   11.0002 C   0  0  0  0  0  0  0  0  0  0  0  0
   14.9106   -0.4525   16.4610 N   0  0  0  0  0  0  0  0  0  0  0  0
   22.8798    2.2915   20.2307 H   0  0  0  0  0  0  0  0  0  0  0  0
   21.6087    3.5013   20.4765 H   0  0  0  0  0  0  0  0  0  0  0  0
   22.2972    3.2513   18.8599 H   0  0  0  0  0  0  0  0  0  0  0  0
   20.6827    1.1740   20.4344 H   0  0  0  0  0  0  0  0  0  0  0  0
   21.3658    0.9260   18.8303 H   0  0  0  0  0  0  0  0  0  0  0  0
   19.9512    2.7876   17.9305 H   0  0  0  0  0  0  0  0  0  0  0  0
   19.2607    3.0360   19.5520 H   0  0  0  0  0  0  0  0  0  0  0  0
   17.6513    2.9013   17.9805 H   0  0  0  0  0  0  0  0  0  0  0  0
   15.5356    1.4619   18.4404 H   0  0  0  0  0  0  0  0  0  0  0  0
   15.8099    2.0939   16.8108 H   0  0  0  0  0  0  0  0  0  0  0  0
   16.4673   -0.7351   17.8439 H   0  0  0  0  0  0  0  0  0  0  0  0
   18.0533   -0.2561   16.2614 H   0  0  0  0  0  0  0  0  0  0  0  0
   17.2478   -2.3264   15.9900 H   0  0  0  0  0  0  0  0  0  0  0  0
   17.0675   -1.6714   14.3634 H   0  0  0  0  0  0  0  0  0  0  0  0
   15.3201   -2.9092   17.3417 H   0  0  0  0  0  0  0  0  0  0  0  0
   15.2521   -3.7717   15.8440 H   0  0  0  0  0  0  0  0  0  0  0  0
   13.0499   -2.4561   17.4071 H   0  0  0  0  0  0  0  0  0  0  0  0
   13.1364   -4.1191   16.9238 H   0  0  0  0  0  0  0  0  0  0  0  0
   11.4027   -2.6089   15.7632 H   0  0  0  0  0  0  0  0  0  0  0  0
   12.3438   -3.6437   14.7432 H   0  0  0  0  0  0  0  0  0  0  0  0
   12.5949   -0.6626   15.0711 H   0  0  0  0  0  0  0  0  0  0  0  0
   12.2745   -1.6025   13.6361 H   0  0  0  0  0  0  0  0  0  0  0  0
   14.5467   -2.5126   13.7146 H   0  0  0  0  0  0  0  0  0  0  0  0
   13.6749   -0.1620   12.7653 H   0  0  0  0  0  0  0  0  0  0  0  0
   15.9665    0.6931   14.3278 H   0  0  0  0  0  0  0  0  0  0  0  0
   15.1736    1.5915   13.2409 H   0  0  0  0  0  0  0  0  0  0  0  0
   16.2196   -2.6726   12.5395 H   0  0  0  0  0  0  0  0  0  0  0  0
   17.5717   -2.9893   10.5510 H   0  0  0  0  0  0  0  0  0  0  0  0
   17.7231   -1.2249    8.8217 H   0  0  0  0  0  0  0  0  0  0  0  0
   16.4320    0.8803    9.0935 H   0  0  0  0  0  0  0  0  0  0  0  0
   15.0388    1.2274   11.0812 H   0  0  0  0  0  0  0  0  0  0  0  0
   14.6525    0.3082   15.8171 H   0  0  0  0  0  0  0  0  0  0  0  0
  1  2  1  0
  2  3  1  0
  3  4  1  0
  4  5  2  0
  4  6  1  0
  6  7  1  0
  7  8  1  0
  8  9  1  0
  9 10  1  0
 10 11  1  0
 11 12  1  0
 12 13  1  0
 13 14  1  0
 14 15  1  0
 15 16  1  0
 16 17  1  0
 17 18  1  0
 17 19  1  0
 19 20  2  0
 20 21  1  0
 21 22  2  0
 22 23  1  0
 23 24  2  0
 11 25  1  0
 25  8  1  0
 16 11  1  0
 24 19  1  0
  1 26  1  0
  1 27  1  0
  1 28  1  0
  2 29  1  0
  2 30  1  0
  3 31  1  0
  3 32  1  0
  6 33  1  0
  7 34  1  0
  7 35  1  0
  8 36  1  0
  9 37  1  0
 10 38  1  0
 10 39  1  0
 12 40  1  0
 12 41  1  0
 13 42  1  0
 13 43  1  0
 14 44  1  0
 14 45  1  0
 15 46  1  0
 15 47  1  0
 16 48  1  0
 17 49  1  0
 18 50  1  0
 18 51  1  0
 20 52  1  0
 21 53  1  0
 22 54  1  0
 23 55  1  0
 24 56  1  0
 25 57  1  0
M  END
>  <Energy>  (61) 
31.868073766179617

>  <compound_id>  (61) 
1404

>  <target_id>  (61) 
1

>  <reference_id>  (61) 
4

>  <inspiration_ids>  (61) 
[4, 36]

>  <energy_score>  (61) 
-58.17276636161233

>  <distance_score>  (61) 
1.469454275730727

>  <path>  (61) 
/opt/xchem-fragalysis-2/maxwin/BulkDock/SCRATCH/505732/C1404-P4/C1404-P4.minimised.mol

>  <scratch_subdir>  (61) 
/opt/xchem-fragalysis-2/maxwin/BulkDock/SCRATCH/505732/C1404-P4

>  <fragmenstein_runtime>  (61) 
10.164190292358398

>  <fragmenstein_outcome>  (61) 
too moved

>  <fragmenstein_mode>  (61) 
expansion

>  <fragmenstein_error>  (61) 


$$$$
C1404-P36
     RDKit          3D

 57 59  0  0  0  0  0  0  0  0999 V2000
   20.2732    0.7839   22.2544 C   0  0  0  0  0  0  0  0  0  0  0  0
   18.9238    1.3297   21.8168 C   0  0  0  0  0  0  0  0  0  0  0  0
   18.5524    0.8483   20.4156 C   0  0  0  0  0  0  0  0  0  0  0  0
   17.1952    1.3830   19.9477 C   0  0  0  0  0  0  0  0  0  0  0  0
   16.5415    2.0955   20.6497 O   0  0  0  0  0  0  0  0  0  0  0  0
   16.9487    0.8916   18.6243 N   0  0  0  0  0  0  0  0  0  0  0  0
   15.7951    1.0240   17.7630 C   0  0  0  0  0  0  0  0  0  0  0  0
   15.0575   -0.3292   17.5796 C   0  0  0  0  0  0  0  0  0  0  0  0
   15.9771   -1.3712   17.0943 N   0  0  0  0  0  0  0  0  0  0  0  0
   15.6212   -1.5521   15.6816 C   0  0  0  0  0  0  0  0  0  0  0  0
   14.1033   -1.3631   15.6584 C   0  0  0  0  0  0  0  0  0  0  0  0
   13.3881   -2.6324   16.2237 C   0  0  0  0  0  0  0  0  0  0  0  0
   11.9627   -2.8309   15.7057 C   0  0  0  0  0  0  0  0  0  0  0  0
   11.2501   -1.5104   15.4916 C   0  0  0  0  0  0  0  0  0  0  0  0
   11.9709   -0.6385   14.4680 C   0  0  0  0  0  0  0  0  0  0  0  0
   13.4722   -0.9993   14.2723 C   0  0  0  0  0  0  0  0  0  0  0  0
   14.1294    0.1147   13.3932 C   0  0  0  0  0  0  0  0  0  0  0  0
   14.6003    1.2532   14.2004 N   0  0  0  0  0  0  0  0  0  0  0  0
   15.1620   -0.3018   12.3488 C   0  0  0  0  0  0  0  0  0  0  0  0
   15.7205   -1.5845   12.2643 C   0  0  0  0  0  0  0  0  0  0  0  0
   16.6399   -1.9083   11.2610 C   0  0  0  0  0  0  0  0  0  0  0  0
   17.0177   -0.9582   10.3189 C   0  0  0  0  0  0  0  0  0  0  0  0
   16.4680    0.3169   10.3718 C   0  0  0  0  0  0  0  0  0  0  0  0
   15.5488    0.6394   11.3729 C   0  0  0  0  0  0  0  0  0  0  0  0
   13.9373   -0.2586   16.6381 N   0  0  0  0  0  0  0  0  0  0  0  0
   20.5192    1.1418   23.2591 H   0  0  0  0  0  0  0  0  0  0  0  0
   21.0671    1.1087   21.5743 H   0  0  0  0  0  0  0  0  0  0  0  0
   20.2653   -0.3105   22.2762 H   0  0  0  0  0  0  0  0  0  0  0  0
   18.9523    2.4257   21.8404 H   0  0  0  0  0  0  0  0  0  0  0  0
   18.1570    1.0165   22.5354 H   0  0  0  0  0  0  0  0  0  0  0  0
   18.5124   -0.2477   20.4039 H   0  0  0  0  0  0  0  0  0  0  0  0
   19.3165    1.1756   19.7001 H   0  0  0  0  0  0  0  0  0  0  0  0
   17.6845    0.2406   18.3706 H   0  0  0  0  0  0  0  0  0  0  0  0
   15.1192    1.7688   18.1965 H   0  0  0  0  0  0  0  0  0  0  0  0
   16.1632    1.4040   16.8042 H   0  0  0  0  0  0  0  0  0  0  0  0
   14.6746   -0.6397   18.5598 H   0  0  0  0  0  0  0  0  0  0  0  0
   15.7249   -2.2249   17.5920 H   0  0  0  0  0  0  0  0  0  0  0  0
   15.9342   -2.5417   15.3333 H   0  0  0  0  0  0  0  0  0  0  0  0
   16.1678   -0.8088   15.0972 H   0  0  0  0  0  0  0  0  0  0  0  0
   13.3539   -2.6019   17.3211 H   0  0  0  0  0  0  0  0  0  0  0  0
   13.9629   -3.5348   15.9821 H   0  0  0  0  0  0  0  0  0  0  0  0
   11.4135   -3.4741   16.3963 H   0  0  0  0  0  0  0  0  0  0  0  0
   11.9848   -3.3679   14.7522 H   0  0  0  0  0  0  0  0  0  0  0  0
   11.1975   -0.9633   16.4363 H   0  0  0  0  0  0  0  0  0  0  0  0
   10.2151   -1.6796   15.1763 H   0  0  0  0  0  0  0  0  0  0  0  0
   11.8525    0.4132   14.7585 H   0  0  0  0  0  0  0  0  0  0  0  0
   11.4679   -0.7360   13.5005 H   0  0  0  0  0  0  0  0  0  0  0  0
   13.4669   -1.9173   13.6706 H   0  0  0  0  0  0  0  0  0  0  0  0
   13.3092    0.5123   12.7763 H   0  0  0  0  0  0  0  0  0  0  0  0
   15.5948    1.1173   14.3924 H   0  0  0  0  0  0  0  0  0  0  0  0
   14.5726    2.0938   13.6227 H   0  0  0  0  0  0  0  0  0  0  0  0
   15.4579   -2.3728   12.9621 H   0  0  0  0  0  0  0  0  0  0  0  0
   17.0596   -2.9104   11.2189 H   0  0  0  0  0  0  0  0  0  0  0  0
   17.7404   -1.2118    9.5488 H   0  0  0  0  0  0  0  0  0  0  0  0
   16.7531    1.0642    9.6358 H   0  0  0  0  0  0  0  0  0  0  0  0
   15.1240    1.6413   11.3792 H   0  0  0  0  0  0  0  0  0  0  0  0
   14.0320    0.6151   16.1016 H   0  0  0  0  0  0  0  0  0  0  0  0
  1  2  1  0
  2  3  1  0
  3  4  1  0
  4  5  2  0
  4  6  1  0
  6  7  1  0
  7  8  1  0
  8  9  1  0
  9 10  1  0
 10 11  1  0
 11 12  1  0
 12 13  1  0
 13 14  1  0
 14 15  1  0
 15 16  1  0
 16 17  1  0
 17 18  1  0
 17 19  1  0
 19 20  2  0
 20 21  1  0
 21 22  2  0
 22 23  1  0
 23 24  2  0
 11 25  1  0
 25  8  1  0
 16 11  1  0
 24 19  1  0
  1 26  1  0
  1 27  1  0
  1 28  1  0
  2 29  1  0
  2 30  1  0
  3 31  1  0
  3 32  1  0
  6 33  1  0
  7 34  1  0
  7 35  1  0
  8 36  1  0
  9 37  1  0
 10 38  1  0
 10 39  1  0
 12 40  1  0
 12 41  1  0
 13 42  1  0
 13 43  1  0
 14 44  1  0
 14 45  1  0
 15 46  1  0
 15 47  1  0
 16 48  1  0
 17 49  1  0
 18 50  1  0
 18 51  1  0
 20 52  1  0
 21 53  1  0
 22 54  1  0
 23 55  1  0
 24 56  1  0
 25 57  1  0
M  END
>  <Energy>  (62) 
36.9893747573133

>  <compound_id>  (62) 
1404

>  <target_id>  (62) 
1

>  <reference_id>  (62) 
36

>  <inspiration_ids>  (62) 
[4, 36]

>  <energy_score>  (62) 
-53.051465370476905

>  <distance_score>  (62) 
1.4176613588071931

>  <path>  (62) 
/opt/xchem-fragalysis-2/maxwin/BulkDock/SCRATCH/505732/C1404-P36/C1404-P36.minimised.mol

>  <scratch_subdir>  (62) 
/opt/xchem-fragalysis-2/maxwin/BulkDock/SCRATCH/505732/C1404-P36

>  <fragmenstein_runtime>  (62) 
6.3536553382873535

>  <fragmenstein_outcome>  (62) 
too moved

>  <fragmenstein_mode>  (62) 
expansion

>  <fragmenstein_error>  (62) 


$$$$
C1405-P4
     RDKit          3D

 43 45  0  0  0  0  0  0  0  0999 V2000
   12.1486   -0.6828   13.3945 N   0  0  0  0  0  0  0  0  0  0  0  0
   13.3131    0.1066   12.9933 C   0  0  0  0  0  0  0  0  0  0  0  0
   14.3510   -0.5803   12.1176 C   0  0  0  0  0  0  0  0  0  0  0  0
   14.8682   -0.0158   10.9400 C   0  0  0  0  0  0  0  0  0  0  0  0
   15.9217   -0.6172   10.2436 C   0  0  0  0  0  0  0  0  0  0  0  0
   16.5093   -1.7711   10.7382 C   0  0  0  0  0  0  0  0  0  0  0  0
   16.0362   -2.3213   11.9195 C   0  0  0  0  0  0  0  0  0  0  0  0
   14.9544   -1.7547   12.5875 C   0  0  0  0  0  0  0  0  0  0  0  0
   13.0111    1.5907   12.7325 C   0  0  0  0  0  0  0  0  0  0  0  0
   11.7429    2.1734   12.7791 C   0  0  0  0  0  0  0  0  0  0  0  0
   11.6007    3.3584   13.5054 C   0  0  0  0  0  0  0  0  0  0  0  0
   12.6728    3.7543   14.3246 C   0  0  0  0  0  0  0  0  0  0  0  0
   13.9043    3.1408   14.1484 C   0  0  0  0  0  0  0  0  0  0  0  0
   14.7000    2.5989   15.1593 N   0  0  0  0  0  0  0  0  0  0  0  0
   14.5658    2.6846   16.7012 C   0  0  0  0  0  0  0  0  0  0  0  0
   13.8153    3.2849   17.3625 O   0  0  0  0  0  0  0  0  0  0  0  0
   15.6505    1.6550   17.1791 C   0  0  0  0  0  0  0  0  0  0  0  0
   15.3601    1.0192   18.5432 C   0  0  0  0  0  0  0  0  0  0  0  0
   14.5615   -0.1739   18.4998 O   0  0  0  0  0  0  0  0  0  0  0  0
   15.0800   -1.1332   17.5777 C   0  0  0  0  0  0  0  0  0  0  0  0
   15.0944   -0.4949   16.2068 C   0  0  0  0  0  0  0  0  0  0  0  0
   15.9605    0.6494   16.1766 O   0  0  0  0  0  0  0  0  0  0  0  0
   14.0981    2.4065   13.0059 C   0  0  0  0  0  0  0  0  0  0  0  0
   12.3959   -1.6651   13.4838 H   0  0  0  0  0  0  0  0  0  0  0  0
   11.8436   -0.3728   14.3127 H   0  0  0  0  0  0  0  0  0  0  0  0
   13.8585    0.1605   13.9398 H   0  0  0  0  0  0  0  0  0  0  0  0
   14.4605    0.9120   10.5435 H   0  0  0  0  0  0  0  0  0  0  0  0
   16.2938   -0.1645    9.3286 H   0  0  0  0  0  0  0  0  0  0  0  0
   17.3429   -2.2344   10.2170 H   0  0  0  0  0  0  0  0  0  0  0  0
   16.5326   -3.1892   12.3316 H   0  0  0  0  0  0  0  0  0  0  0  0
   14.6186   -2.2274   13.5059 H   0  0  0  0  0  0  0  0  0  0  0  0
   10.8749    1.6241   12.4342 H   0  0  0  0  0  0  0  0  0  0  0  0
   10.6260    3.8165   13.6429 H   0  0  0  0  0  0  0  0  0  0  0  0
   12.4942    4.4085   15.1738 H   0  0  0  0  0  0  0  0  0  0  0  0
   15.5210    2.0432   14.9189 H   0  0  0  0  0  0  0  0  0  0  0  0
   16.5557    2.2680   17.2817 H   0  0  0  0  0  0  0  0  0  0  0  0
   14.8665    1.7264   19.2172 H   0  0  0  0  0  0  0  0  0  0  0  0
   16.3106    0.7407   19.0152 H   0  0  0  0  0  0  0  0  0  0  0  0
   16.0855   -1.4272   17.8981 H   0  0  0  0  0  0  0  0  0  0  0  0
   14.4336   -2.0152   17.5938 H   0  0  0  0  0  0  0  0  0  0  0  0
   14.0935   -0.1718   15.9248 H   0  0  0  0  0  0  0  0  0  0  0  0
   15.4637   -1.2061   15.4657 H   0  0  0  0  0  0  0  0  0  0  0  0
   15.0978    1.9943   12.8413 H   0  0  0  0  0  0  0  0  0  0  0  0
  1  2  1  0
  2  3  1  0
  3  4  2  0
  4  5  1  0
  5  6  2  0
  6  7  1  0
  7  8  2  0
  2  9  1  0
  9 10  2  0
 10 11  1  0
 11 12  2  0
 12 13  1  0
 13 14  1  0
 14 15  1  0
 15 16  2  0
 15 17  1  0
 17 18  1  0
 18 19  1  0
 19 20  1  0
 20 21  1  0
 21 22  1  0
 13 23  2  0
  8  3  1  0
 23  9  1  0
 22 17  1  0
  1 24  1  0
  1 25  1  0
  2 26  1  0
  4 27  1  0
  5 28  1  0
  6 29  1  0
  7 30  1  0
  8 31  1  0
 10 32  1  0
 11 33  1  0
 12 34  1  0
 14 35  1  0
 17 36  1  0
 18 37  1  0
 18 38  1  0
 20 39  1  0
 20 40  1  0
 21 41  1  0
 21 42  1  0
 23 43  1  0
M  END
>  <Energy>  (63) 
184.9278347112527

>  <compound_id>  (63) 
1405

>  <target_id>  (63) 
1

>  <reference_id>  (63) 
4

>  <inspiration_ids>  (63) 
[4, 50]

>  <energy_score>  (63) 
29.297480994835098

>  <distance_score>  (63) 
2.695002239545355

>  <path>  (63) 
/opt/xchem-fragalysis-2/maxwin/BulkDock/SCRATCH/505732/C1405-P4/C1405-P4.minimised.mol

>  <scratch_subdir>  (63) 
/opt/xchem-fragalysis-2/maxwin/BulkDock/SCRATCH/505732/C1405-P4

>  <fragmenstein_runtime>  (63) 
64.18032717704773

>  <fragmenstein_outcome>  (63) 
too moved

>  <fragmenstein_mode>  (63) 
expansion

>  <fragmenstein_error>  (63) 


$$$$
C1405-P50
     RDKit          3D

 43 45  0  0  0  0  0  0  0  0999 V2000
   10.7415    0.9154   12.3493 N   0  0  0  0  0  0  0  0  0  0  0  0
   11.8317    1.0547   13.2881 C   0  0  0  0  0  0  0  0  0  0  0  0
   13.2523    0.8401   12.7285 C   0  0  0  0  0  0  0  0  0  0  0  0
   13.7499    1.4368   11.5578 C   0  0  0  0  0  0  0  0  0  0  0  0
   15.0385    1.1255   11.0757 C   0  0  0  0  0  0  0  0  0  0  0  0
   15.8673    0.2417   11.7654 C   0  0  0  0  0  0  0  0  0  0  0  0
   15.4166   -0.3168   12.9512 C   0  0  0  0  0  0  0  0  0  0  0  0
   14.1308   -0.0145   13.4239 C   0  0  0  0  0  0  0  0  0  0  0  0
   11.6969    2.3917   14.0038 C   0  0  0  0  0  0  0  0  0  0  0  0
   11.9349    3.5950   13.3415 C   0  0  0  0  0  0  0  0  0  0  0  0
   12.8736    4.4482   13.9026 C   0  0  0  0  0  0  0  0  0  0  0  0
   13.5922    4.0111   15.0236 C   0  0  0  0  0  0  0  0  0  0  0  0
   13.1665    2.8733   15.6978 C   0  0  0  0  0  0  0  0  0  0  0  0
   14.0275    1.9992   16.3513 N   0  0  0  0  0  0  0  0  0  0  0  0
   13.7592    0.5986   16.9846 C   0  0  0  0  0  0  0  0  0  0  0  0
   12.7583    0.0069   17.1192 O   0  0  0  0  0  0  0  0  0  0  0  0
   15.0880   -0.0477   17.3652 C   0  0  0  0  0  0  0  0  0  0  0  0
   14.9095   -1.0011   18.5410 C   0  0  0  0  0  0  0  0  0  0  0  0
   14.0947   -2.1521   18.2899 O   0  0  0  0  0  0  0  0  0  0  0  0
   14.0850   -2.5992   16.9343 C   0  0  0  0  0  0  0  0  0  0  0  0
   15.3350   -2.1492   16.1954 C   0  0  0  0  0  0  0  0  0  0  0  0
   15.5173   -0.7242   16.1682 O   0  0  0  0  0  0  0  0  0  0  0  0
   11.9636    2.3042   15.3495 C   0  0  0  0  0  0  0  0  0  0  0  0
   10.7678    1.7252   11.7445 H   0  0  0  0  0  0  0  0  0  0  0  0
    9.8886    0.8809   12.8953 H   0  0  0  0  0  0  0  0  0  0  0  0
   11.6584    0.2426   14.0084 H   0  0  0  0  0  0  0  0  0  0  0  0
   13.1285    2.1129   10.9788 H   0  0  0  0  0  0  0  0  0  0  0  0
   15.3869    1.5788   10.1509 H   0  0  0  0  0  0  0  0  0  0  0  0
   16.8566    0.0036   11.3867 H   0  0  0  0  0  0  0  0  0  0  0  0
   16.0549   -1.0007   13.5025 H   0  0  0  0  0  0  0  0  0  0  0  0
   13.7862   -0.5030   14.3311 H   0  0  0  0  0  0  0  0  0  0  0  0
   11.6347    3.7627   12.3127 H   0  0  0  0  0  0  0  0  0  0  0  0
   13.1956    5.3390   13.3694 H   0  0  0  0  0  0  0  0  0  0  0  0
   14.5127    4.5147   15.3021 H   0  0  0  0  0  0  0  0  0  0  0  0
   15.0026    2.2447   16.4727 H   0  0  0  0  0  0  0  0  0  0  0  0
   15.8256    0.7208   17.6147 H   0  0  0  0  0  0  0  0  0  0  0  0
   14.4840   -0.4795   19.4051 H   0  0  0  0  0  0  0  0  0  0  0  0
   15.8914   -1.3799   18.8489 H   0  0  0  0  0  0  0  0  0  0  0  0
   14.0196   -3.6911   16.9521 H   0  0  0  0  0  0  0  0  0  0  0  0
   13.1798   -2.2321   16.4437 H   0  0  0  0  0  0  0  0  0  0  0  0
   16.2263   -2.5763   16.6697 H   0  0  0  0  0  0  0  0  0  0  0  0
   15.3169   -2.5036   15.1622 H   0  0  0  0  0  0  0  0  0  0  0  0
   11.6021    1.4255   15.8736 H   0  0  0  0  0  0  0  0  0  0  0  0
  1  2  1  0
  2  3  1  0
  3  4  2  0
  4  5  1  0
  5  6  2  0
  6  7  1  0
  7  8  2  0
  2  9  1  0
  9 10  2  0
 10 11  1  0
 11 12  2  0
 12 13  1  0
 13 14  1  0
 14 15  1  0
 15 16  2  0
 15 17  1  0
 17 18  1  0
 18 19  1  0
 19 20  1  0
 20 21  1  0
 21 22  1  0
 13 23  2  0
  8  3  1  0
 23  9  1  0
 22 17  1  0
  1 24  1  0
  1 25  1  0
  2 26  1  0
  4 27  1  0
  5 28  1  0
  6 29  1  0
  7 30  1  0
  8 31  1  0
 10 32  1  0
 11 33  1  0
 12 34  1  0
 14 35  1  0
 17 36  1  0
 18 37  1  0
 18 38  1  0
 20 39  1  0
 20 40  1  0
 21 41  1  0
 21 42  1  0
 23 43  1  0
M  END
>  <Energy>  (64) 
179.72881395028716

>  <compound_id>  (64) 
1405

>  <target_id>  (64) 
1

>  <reference_id>  (64) 
50

>  <inspiration_ids>  (64) 
[4, 50]

>  <energy_score>  (64) 
24.09846023387172

>  <distance_score>  (64) 
2.7752236470631484

>  <path>  (64) 
/opt/xchem-fragalysis-2/maxwin/BulkDock/SCRATCH/505732/C1405-P50/C1405-P50.minimised.mol

>  <scratch_subdir>  (64) 
/opt/xchem-fragalysis-2/maxwin/BulkDock/SCRATCH/505732/C1405-P50

>  <fragmenstein_runtime>  (64) 
62.6976957321167

>  <fragmenstein_outcome>  (64) 
too moved

>  <fragmenstein_mode>  (64) 
expansion

>  <fragmenstein_error>  (64) 


$$$$
C1408-P4
     RDKit          3D

 45 47  0  0  0  0  0  0  0  0999 V2000
   13.9395    1.2319   13.9153 N   0  0  0  0  0  0  0  0  0  0  0  0
   13.6769   -0.0999   13.3670 C   0  0  0  0  0  0  0  0  0  0  0  0
   14.7572   -0.5364   12.3767 C   0  0  0  0  0  0  0  0  0  0  0  0
   15.2306   -1.8571   12.2858 C   0  0  0  0  0  0  0  0  0  0  0  0
   16.1598   -2.2248   11.3089 C   0  0  0  0  0  0  0  0  0  0  0  0
   16.6311   -1.2858   10.3989 C   0  0  0  0  0  0  0  0  0  0  0  0
   16.1708    0.0242   10.4614 C   0  0  0  0  0  0  0  0  0  0  0  0
   15.2423    0.3927   11.4371 C   0  0  0  0  0  0  0  0  0  0  0  0
   13.2899   -1.1428   14.3991 C   0  0  0  0  0  0  0  0  0  0  0  0
   12.2172   -2.0076   14.1183 C   0  0  0  0  0  0  0  0  0  0  0  0
   11.8275   -3.0455   14.9676 C   0  0  0  0  0  0  0  0  0  0  0  0
   12.5411   -3.2901   16.1224 C   0  0  0  0  0  0  0  0  0  0  0  0
   13.6078   -2.4591   16.4255 C   0  0  0  0  0  0  0  0  0  0  0  0
   13.9686   -1.3774   15.5854 C   0  0  0  0  0  0  0  0  0  0  0  0
   14.9135   -0.4089   16.1923 C   0  0  0  0  0  0  0  0  0  0  0  0
   14.5771    0.6701   16.4369 O   0  0  0  0  0  0  0  0  0  0  0  0
   16.2148   -1.1173   16.4778 N   0  0  0  0  0  0  0  0  0  0  0  0
   17.3727   -0.6871   17.2182 C   0  0  0  0  0  0  0  0  0  0  0  0
   18.3280   -1.8515   17.3018 C   0  0  0  0  0  0  0  0  0  0  0  0
   17.6507   -3.0704   17.9401 C   0  0  0  0  0  0  0  0  0  0  0  0
   16.3926   -2.7894   18.7461 C   0  0  0  0  0  0  0  0  0  0  0  0
   15.5347   -3.6533   18.9180 O   0  0  0  0  0  0  0  0  0  0  0  0
   16.2480   -1.5278   19.2605 N   0  0  0  0  0  0  0  0  0  0  0  0
   16.9242   -0.3768   18.6679 C   0  0  0  0  0  0  0  0  0  0  0  0
   14.8285    1.2238   14.4162 H   0  0  0  0  0  0  0  0  0  0  0  0
   13.2550    1.4153   14.6546 H   0  0  0  0  0  0  0  0  0  0  0  0
   12.7843    0.0635   12.7547 H   0  0  0  0  0  0  0  0  0  0  0  0
   14.8760   -2.6380   12.9536 H   0  0  0  0  0  0  0  0  0  0  0  0
   16.5077   -3.2524   11.2523 H   0  0  0  0  0  0  0  0  0  0  0  0
   17.3567   -1.5784    9.6454 H   0  0  0  0  0  0  0  0  0  0  0  0
   16.5323    0.7644    9.7528 H   0  0  0  0  0  0  0  0  0  0  0  0
   14.8858    1.4217   11.4590 H   0  0  0  0  0  0  0  0  0  0  0  0
   11.6640   -1.8814   13.1993 H   0  0  0  0  0  0  0  0  0  0  0  0
   10.9870   -3.6781   14.7003 H   0  0  0  0  0  0  0  0  0  0  0  0
   12.2708   -4.1091   16.7846 H   0  0  0  0  0  0  0  0  0  0  0  0
   14.1024   -2.6046   17.3781 H   0  0  0  0  0  0  0  0  0  0  0  0
   16.1995   -2.0389   16.0482 H   0  0  0  0  0  0  0  0  0  0  0  0
   17.8082    0.1950   16.7412 H   0  0  0  0  0  0  0  0  0  0  0  0
   19.2069   -1.5719   17.8964 H   0  0  0  0  0  0  0  0  0  0  0  0
   18.7042   -2.1255   16.3084 H   0  0  0  0  0  0  0  0  0  0  0  0
   17.3658   -3.7683   17.1422 H   0  0  0  0  0  0  0  0  0  0  0  0
   18.3615   -3.5974   18.5862 H   0  0  0  0  0  0  0  0  0  0  0  0
   15.3858   -1.3749   19.7705 H   0  0  0  0  0  0  0  0  0  0  0  0
   16.2191    0.4605   18.6951 H   0  0  0  0  0  0  0  0  0  0  0  0
   17.7770   -0.1245   19.3070 H   0  0  0  0  0  0  0  0  0  0  0  0
  1  2  1  0
  2  3  1  0
  3  4  2  0
  4  5  1  0
  5  6  2  0
  6  7  1  0
  7  8  2  0
  2  9  1  0
  9 10  2  0
 10 11  1  0
 11 12  2  0
 12 13  1  0
 13 14  2  0
 14 15  1  0
 15 16  2  0
 15 17  1  0
 17 18  1  0
 18 19  1  0
 19 20  1  0
 20 21  1  0
 21 22  2  0
 21 23  1  0
 23 24  1  0
  8  3  1  0
 14  9  1  0
 24 18  1  0
  1 25  1  0
  1 26  1  0
  2 27  1  0
  4 28  1  0
  5 29  1  0
  6 30  1  0
  7 31  1  0
  8 32  1  0
 10 33  1  0
 11 34  1  0
 12 35  1  0
 13 36  1  0
 17 37  1  0
 18 38  1  0
 19 39  1  0
 19 40  1  0
 20 41  1  0
 20 42  1  0
 23 43  1  0
 24 44  1  0
 24 45  1  0
M  END
>  <Energy>  (65) 
45.818259251137576

>  <compound_id>  (65) 
1408

>  <target_id>  (65) 
1

>  <reference_id>  (65) 
4

>  <inspiration_ids>  (65) 
[4, 61]

>  <energy_score>  (65) 
-26.816987240568636

>  <distance_score>  (65) 
1.57326791488419

>  <path>  (65) 
/opt/xchem-fragalysis-2/maxwin/BulkDock/SCRATCH/505732/C1408-P4/C1408-P4.minimised.mol

>  <scratch_subdir>  (65) 
/opt/xchem-fragalysis-2/maxwin/BulkDock/SCRATCH/505732/C1408-P4

>  <fragmenstein_runtime>  (65) 
12.940946340560913

>  <fragmenstein_outcome>  (65) 
too moved

>  <fragmenstein_mode>  (65) 
expansion

>  <fragmenstein_error>  (65) 


$$$$
C1408-P61
     RDKit          3D

 45 47  0  0  0  0  0  0  0  0999 V2000
   14.3463    1.1192   14.2745 N   0  0  0  0  0  0  0  0  0  0  0  0
   13.7654   -0.0204   13.5530 C   0  0  0  0  0  0  0  0  0  0  0  0
   14.6846   -0.4557   12.4142 C   0  0  0  0  0  0  0  0  0  0  0  0
   15.3099   -1.7093   12.3488 C   0  0  0  0  0  0  0  0  0  0  0  0
   16.1583   -2.0397   11.2888 C   0  0  0  0  0  0  0  0  0  0  0  0
   16.4063   -1.1207   10.2764 C   0  0  0  0  0  0  0  0  0  0  0  0
   15.8027    0.1308   10.3205 C   0  0  0  0  0  0  0  0  0  0  0  0
   14.9512    0.4587   11.3780 C   0  0  0  0  0  0  0  0  0  0  0  0
   13.2468   -1.1211   14.4661 C   0  0  0  0  0  0  0  0  0  0  0  0
   11.9919   -1.6816   14.2152 C   0  0  0  0  0  0  0  0  0  0  0  0
   11.4774   -2.7395   14.9737 C   0  0  0  0  0  0  0  0  0  0  0  0
   12.2179   -3.2831   16.0107 C   0  0  0  0  0  0  0  0  0  0  0  0
   13.4549   -2.7351   16.3018 C   0  0  0  0  0  0  0  0  0  0  0  0
   13.9459   -1.6580   15.5424 C   0  0  0  0  0  0  0  0  0  0  0  0
   15.2001   -1.0491   15.9899 C   0  0  0  0  0  0  0  0  0  0  0  0
   16.1952   -1.2251   15.4177 O   0  0  0  0  0  0  0  0  0  0  0  0
   14.9261   -0.3059   17.3034 N   0  0  0  0  0  0  0  0  0  0  0  0
   15.8402    0.3028   18.2490 C   0  0  0  0  0  0  0  0  0  0  0  0
   17.2336   -0.2884   18.0848 C   0  0  0  0  0  0  0  0  0  0  0  0
   17.2362   -1.8062   18.3264 C   0  0  0  0  0  0  0  0  0  0  0  0
   15.9875   -2.3655   18.9946 C   0  0  0  0  0  0  0  0  0  0  0  0
   15.6158   -3.5285   18.8486 O   0  0  0  0  0  0  0  0  0  0  0  0
   15.2882   -1.5102   19.8098 N   0  0  0  0  0  0  0  0  0  0  0  0
   15.3891   -0.0661   19.6716 C   0  0  0  0  0  0  0  0  0  0  0  0
   13.8491    1.2705   15.1454 H   0  0  0  0  0  0  0  0  0  0  0  0
   15.3131    0.8830   14.5092 H   0  0  0  0  0  0  0  0  0  0  0  0
   12.8757    0.3979   13.0605 H   0  0  0  0  0  0  0  0  0  0  0  0
   15.1790   -2.4491   13.1314 H   0  0  0  0  0  0  0  0  0  0  0  0
   16.6409   -3.0125   11.2706 H   0  0  0  0  0  0  0  0  0  0  0  0
   17.0840   -1.3744    9.4677 H   0  0  0  0  0  0  0  0  0  0  0  0
   16.0010    0.8600    9.5402 H   0  0  0  0  0  0  0  0  0  0  0  0
   14.5017    1.4499   11.4053 H   0  0  0  0  0  0  0  0  0  0  0  0
   11.3999   -1.2836   13.4002 H   0  0  0  0  0  0  0  0  0  0  0  0
   10.5050   -3.1508   14.7217 H   0  0  0  0  0  0  0  0  0  0  0  0
   11.8481   -4.1363   16.5726 H   0  0  0  0  0  0  0  0  0  0  0  0
   14.0432   -3.1588   17.1084 H   0  0  0  0  0  0  0  0  0  0  0  0
   13.9268   -0.2744   17.4723 H   0  0  0  0  0  0  0  0  0  0  0  0
   15.8365    1.3854   18.0948 H   0  0  0  0  0  0  0  0  0  0  0  0
   17.9125    0.1829   18.8080 H   0  0  0  0  0  0  0  0  0  0  0  0
   17.6585   -0.0614   17.1006 H   0  0  0  0  0  0  0  0  0  0  0  0
   17.3648   -2.3330   17.3749 H   0  0  0  0  0  0  0  0  0  0  0  0
   18.0968   -2.0764   18.9495 H   0  0  0  0  0  0  0  0  0  0  0  0
   14.4761   -1.9171   20.2609 H   0  0  0  0  0  0  0  0  0  0  0  0
   14.3969    0.3455   19.8852 H   0  0  0  0  0  0  0  0  0  0  0  0
   16.0849    0.3017   20.4329 H   0  0  0  0  0  0  0  0  0  0  0  0
  1  2  1  0
  2  3  1  0
  3  4  2  0
  4  5  1  0
  5  6  2  0
  6  7  1  0
  7  8  2  0
  2  9  1  0
  9 10  2  0
 10 11  1  0
 11 12  2  0
 12 13  1  0
 13 14  2  0
 14 15  1  0
 15 16  2  0
 15 17  1  0
 17 18  1  0
 18 19  1  0
 19 20  1  0
 20 21  1  0
 21 22  2  0
 21 23  1  0
 23 24  1  0
  8  3  1  0
 14  9  1  0
 24 18  1  0
  1 25  1  0
  1 26  1  0
  2 27  1  0
  4 28  1  0
  5 29  1  0
  6 30  1  0
  7 31  1  0
  8 32  1  0
 10 33  1  0
 11 34  1  0
 12 35  1  0
 13 36  1  0
 17 37  1  0
 18 38  1  0
 19 39  1  0
 19 40  1  0
 20 41  1  0
 20 42  1  0
 23 43  1  0
 24 44  1  0
 24 45  1  0
M  END
>  <Energy>  (66) 
48.796100106353123

>  <compound_id>  (66) 
1408

>  <target_id>  (66) 
1

>  <reference_id>  (66) 
61

>  <inspiration_ids>  (66) 
[4, 61]

>  <energy_score>  (66) 
-23.839146385351256

>  <distance_score>  (66) 
1.3398184753696993

>  <path>  (66) 
/opt/xchem-fragalysis-2/maxwin/BulkDock/SCRATCH/505732/C1408-P61/C1408-P61.minimised.mol

>  <scratch_subdir>  (66) 
/opt/xchem-fragalysis-2/maxwin/BulkDock/SCRATCH/505732/C1408-P61

>  <fragmenstein_runtime>  (66) 
13.121760606765747

>  <fragmenstein_outcome>  (66) 
too moved

>  <fragmenstein_mode>  (66) 
expansion

>  <fragmenstein_error>  (66) 


$$$$
C1413-P4
     RDKit          3D

 40 41  0  0  0  0  0  0  0  0999 V2000
   11.9714   -3.6962   13.2814 C   0  0  0  0  0  0  0  0  0  0  0  0
   12.9986   -2.6165   13.4796 C   0  0  0  0  0  0  0  0  0  0  0  0
   12.7769   -1.8066   14.7407 C   0  0  0  0  0  0  0  0  0  0  0  0
   12.2313   -2.5903   15.9580 C   0  0  0  0  0  0  0  0  0  0  0  0
   11.0175   -3.2702   15.7304 O   0  0  0  0  0  0  0  0  0  0  0  0
   13.2436   -3.3794   16.7612 C   0  0  0  0  0  0  0  0  0  0  0  0
   14.4564   -2.5241   17.0808 C   0  0  0  0  0  0  0  0  0  0  0  0
   15.3805   -3.3088   17.6851 F   0  0  0  0  0  0  0  0  0  0  0  0
   15.0768   -1.8902   15.8449 C   0  0  0  0  0  0  0  0  0  0  0  0
   15.4814   -2.9173   15.0560 F   0  0  0  0  0  0  0  0  0  0  0  0
   14.0567   -1.0080   15.1089 C   0  0  0  0  0  0  0  0  0  0  0  0
   14.5945   -0.0599   13.9964 C   0  0  0  0  0  0  0  0  0  0  0  0
   15.4564    0.9404   14.6489 N   0  0  0  0  0  0  0  0  0  0  0  0
   15.2881   -0.5617   12.7422 C   0  0  0  0  0  0  0  0  0  0  0  0
   16.2970   -1.5297   12.7411 C   0  0  0  0  0  0  0  0  0  0  0  0
   16.8944   -1.9604   11.5534 C   0  0  0  0  0  0  0  0  0  0  0  0
   16.5488   -1.3747   10.3439 C   0  0  0  0  0  0  0  0  0  0  0  0
   15.6013   -0.3602   10.3231 C   0  0  0  0  0  0  0  0  0  0  0  0
   14.9710    0.0351   11.5072 C   0  0  0  0  0  0  0  0  0  0  0  0
   12.2099   -4.4061   12.4864 H   0  0  0  0  0  0  0  0  0  0  0  0
   11.8232   -4.3104   14.1394 H   0  0  0  0  0  0  0  0  0  0  0  0
   11.0239   -3.2346   13.1033 H   0  0  0  0  0  0  0  0  0  0  0  0
   13.9996   -3.0300   13.4155 H   0  0  0  0  0  0  0  0  0  0  0  0
   12.9576   -1.9119   12.6497 H   0  0  0  0  0  0  0  0  0  0  0  0
   11.9922   -1.0832   14.4768 H   0  0  0  0  0  0  0  0  0  0  0  0
   11.8772   -1.8372   16.6250 H   0  0  0  0  0  0  0  0  0  0  0  0
   11.1054   -4.2169   15.9598 H   0  0  0  0  0  0  0  0  0  0  0  0
   12.7985   -3.7391   17.6952 H   0  0  0  0  0  0  0  0  0  0  0  0
   13.5361   -4.2971   16.2583 H   0  0  0  0  0  0  0  0  0  0  0  0
   14.2001   -1.7453   17.8032 H   0  0  0  0  0  0  0  0  0  0  0  0
   15.9722   -1.3295   16.1300 H   0  0  0  0  0  0  0  0  0  0  0  0
   13.7273   -0.2938   15.8670 H   0  0  0  0  0  0  0  0  0  0  0  0
   13.7115    0.4965   13.6491 H   0  0  0  0  0  0  0  0  0  0  0  0
   15.9669    1.4518   13.9263 H   0  0  0  0  0  0  0  0  0  0  0  0
   14.8771    1.6352   15.1160 H   0  0  0  0  0  0  0  0  0  0  0  0
   16.6667   -1.9645   13.6612 H   0  0  0  0  0  0  0  0  0  0  0  0
   17.6512   -2.7402   11.5853 H   0  0  0  0  0  0  0  0  0  0  0  0
   17.0338   -1.7002    9.4292 H   0  0  0  0  0  0  0  0  0  0  0  0
   15.3412    0.1175    9.3827 H   0  0  0  0  0  0  0  0  0  0  0  0
   14.2225    0.8225   11.4552 H   0  0  0  0  0  0  0  0  0  0  0  0
  1  2  1  0
  2  3  1  0
  3  4  1  0
  4  5  1  0
  4  6  1  0
  6  7  1  0
  7  8  1  0
  7  9  1  0
  9 10  1  0
  9 11  1  0
 11 12  1  0
 12 13  1  0
 12 14  1  0
 14 15  2  0
 15 16  1  0
 16 17  2  0
 17 18  1  0
 18 19  2  0
 11  3  1  0
 19 14  1  0
  1 20  1  0
  1 21  1  0
  1 22  1  0
  2 23  1  0
  2 24  1  0
  3 25  1  0
  4 26  1  0
  5 27  1  0
  6 28  1  0
  6 29  1  0
  7 30  1  0
  9 31  1  0
 11 32  1  0
 12 33  1  0
 13 34  1  0
 13 35  1  0
 15 36  1  0
 16 37  1  0
 17 38  1  0
 18 39  1  0
 19 40  1  0
M  END
>  <Energy>  (67) 
59.152313517107721

>  <compound_id>  (67) 
1413

>  <target_id>  (67) 
1

>  <reference_id>  (67) 
4

>  <inspiration_ids>  (67) 
[4, 86]

>  <energy_score>  (67) 
-27.746406546083847

>  <distance_score>  (67) 
0.9009967393091386

>  <path>  (67) 
/opt/xchem-fragalysis-2/maxwin/BulkDock/SCRATCH/505732/C1413-P4/C1413-P4.minimised.mol

>  <scratch_subdir>  (67) 
/opt/xchem-fragalysis-2/maxwin/BulkDock/SCRATCH/505732/C1413-P4

>  <fragmenstein_runtime>  (67) 
2.0788910388946533

>  <fragmenstein_outcome>  (67) 
acceptable

>  <fragmenstein_mode>  (67) 
expansion

>  <fragmenstein_error>  (67) 


$$$$
C1413-P86
     RDKit          3D

 40 41  0  0  0  0  0  0  0  0999 V2000
   11.6964   -3.1776   13.7712 C   0  0  0  0  0  0  0  0  0  0  0  0
   12.5497   -1.9417   13.6587 C   0  0  0  0  0  0  0  0  0  0  0  0
   12.6212   -1.0286   14.8806 C   0  0  0  0  0  0  0  0  0  0  0  0
   12.0172   -1.5737   16.1774 C   0  0  0  0  0  0  0  0  0  0  0  0
   10.6630   -1.9507   16.0046 O   0  0  0  0  0  0  0  0  0  0  0  0
   12.8676   -2.6576   16.8449 C   0  0  0  0  0  0  0  0  0  0  0  0
   14.2653   -2.1260   17.0982 C   0  0  0  0  0  0  0  0  0  0  0  0
   15.0275   -3.1230   17.6071 F   0  0  0  0  0  0  0  0  0  0  0  0
   14.9107   -1.6127   15.8213 C   0  0  0  0  0  0  0  0  0  0  0  0
   15.0099   -2.6730   14.9755 F   0  0  0  0  0  0  0  0  0  0  0  0
   14.0443   -0.5152   15.1878 C   0  0  0  0  0  0  0  0  0  0  0  0
   14.6763    0.3126   14.0450 C   0  0  0  0  0  0  0  0  0  0  0  0
   15.7113    1.1583   14.6576 N   0  0  0  0  0  0  0  0  0  0  0  0
   15.2529   -0.3220   12.7942 C   0  0  0  0  0  0  0  0  0  0  0  0
   16.2185   -1.3373   12.8243 C   0  0  0  0  0  0  0  0  0  0  0  0
   16.8104   -1.8126   11.6541 C   0  0  0  0  0  0  0  0  0  0  0  0
   16.4918   -1.2354   10.4334 C   0  0  0  0  0  0  0  0  0  0  0  0
   15.5445   -0.2204   10.3733 C   0  0  0  0  0  0  0  0  0  0  0  0
   14.9216    0.2242   11.5409 C   0  0  0  0  0  0  0  0  0  0  0  0
   12.0337   -3.7991   14.5851 H   0  0  0  0  0  0  0  0  0  0  0  0
   11.7256   -3.7591   12.8528 H   0  0  0  0  0  0  0  0  0  0  0  0
   10.6586   -2.9826   13.9909 H   0  0  0  0  0  0  0  0  0  0  0  0
   13.5366   -2.2543   13.3216 H   0  0  0  0  0  0  0  0  0  0  0  0
   12.1572   -1.3189   12.8643 H   0  0  0  0  0  0  0  0  0  0  0  0
   12.0129   -0.1478   14.6205 H   0  0  0  0  0  0  0  0  0  0  0  0
   11.9800   -0.7273   16.8722 H   0  0  0  0  0  0  0  0  0  0  0  0
   10.3058   -1.5172   15.2040 H   0  0  0  0  0  0  0  0  0  0  0  0
   12.4355   -2.9809   17.7918 H   0  0  0  0  0  0  0  0  0  0  0  0
   12.9295   -3.5822   16.2704 H   0  0  0  0  0  0  0  0  0  0  0  0
   14.2360   -1.3298   17.8506 H   0  0  0  0  0  0  0  0  0  0  0  0
   15.9259   -1.2664   16.0373 H   0  0  0  0  0  0  0  0  0  0  0  0
   13.8901    0.2221   15.9954 H   0  0  0  0  0  0  0  0  0  0  0  0
   13.8927    1.0070   13.7104 H   0  0  0  0  0  0  0  0  0  0  0  0
   16.2528    1.6043   13.9143 H   0  0  0  0  0  0  0  0  0  0  0  0
   15.2776    1.9201   15.1750 H   0  0  0  0  0  0  0  0  0  0  0  0
   16.5708   -1.7538   13.7618 H   0  0  0  0  0  0  0  0  0  0  0  0
   17.5506   -2.6064   11.7103 H   0  0  0  0  0  0  0  0  0  0  0  0
   16.9989   -1.5670    9.5356 H   0  0  0  0  0  0  0  0  0  0  0  0
   15.2950    0.2320    9.4176 H   0  0  0  0  0  0  0  0  0  0  0  0
   14.1959    1.0303   11.4643 H   0  0  0  0  0  0  0  0  0  0  0  0
  1  2  1  0
  2  3  1  0
  3  4  1  0
  4  5  1  0
  4  6  1  0
  6  7  1  0
  7  8  1  0
  7  9  1  0
  9 10  1  0
  9 11  1  0
 11 12  1  0
 12 13  1  0
 12 14  1  0
 14 15  2  0
 15 16  1  0
 16 17  2  0
 17 18  1  0
 18 19  2  0
 11  3  1  0
 19 14  1  0
  1 20  1  0
  1 21  1  0
  1 22  1  0
  2 23  1  0
  2 24  1  0
  3 25  1  0
  4 26  1  0
  5 27  1  0
  6 28  1  0
  6 29  1  0
  7 30  1  0
  9 31  1  0
 11 32  1  0
 12 33  1  0
 13 34  1  0
 13 35  1  0
 15 36  1  0
 16 37  1  0
 17 38  1  0
 18 39  1  0
 19 40  1  0
M  END
>  <Energy>  (68) 
56.277149416493614

>  <compound_id>  (68) 
1413

>  <target_id>  (68) 
1

>  <reference_id>  (68) 
86

>  <inspiration_ids>  (68) 
[4, 86]

>  <energy_score>  (68) 
-30.62157064669742

>  <distance_score>  (68) 
1.1406457132123404

>  <path>  (68) 
/opt/xchem-fragalysis-2/maxwin/BulkDock/SCRATCH/505732/C1413-P86/C1413-P86.minimised.mol

>  <scratch_subdir>  (68) 
/opt/xchem-fragalysis-2/maxwin/BulkDock/SCRATCH/505732/C1413-P86

>  <fragmenstein_runtime>  (68) 
1.9388244152069092

>  <fragmenstein_outcome>  (68) 
too moved

>  <fragmenstein_mode>  (68) 
expansion

>  <fragmenstein_error>  (68) 


$$$$
C1414-P4
     RDKit          3D

 48 50  0  0  0  0  0  0  0  0999 V2000
   16.3855   -3.3695   15.0339 C   0  0  0  0  0  0  0  0  0  0  0  0
   16.2746   -2.0771   15.6456 N   0  0  0  0  0  0  0  0  0  0  0  0
   17.2433   -1.8256   16.7317 C   0  0  0  0  0  0  0  0  0  0  0  0
   17.9115   -3.0056   17.4988 C   0  0  0  0  0  0  0  0  0  0  0  0
   19.1063   -3.4671   16.8648 O   0  0  0  0  0  0  0  0  0  0  0  0
   16.5465   -0.9518   17.6745 N   0  0  0  0  0  0  0  0  0  0  0  0
   15.4686   -0.3854   16.8713 C   0  0  0  0  0  0  0  0  0  0  0  0
   14.9398   -1.6080   16.0760 C   0  0  0  0  0  0  0  0  0  0  0  0
   14.2920   -2.5781   17.1341 C   0  0  0  0  0  0  0  0  0  0  0  0
   13.2047   -3.5375   16.6898 C   0  0  0  0  0  0  0  0  0  0  0  0
   12.2024   -2.9480   15.7228 C   0  0  0  0  0  0  0  0  0  0  0  0
   12.8592   -2.2398   14.5558 C   0  0  0  0  0  0  0  0  0  0  0  0
   13.8573   -1.1511   15.0012 C   0  0  0  0  0  0  0  0  0  0  0  0
   14.1439   -0.1569   13.8128 C   0  0  0  0  0  0  0  0  0  0  0  0
   14.3576    1.2174   14.3121 N   0  0  0  0  0  0  0  0  0  0  0  0
   15.0805   -0.5093   12.6590 C   0  0  0  0  0  0  0  0  0  0  0  0
   15.2358   -1.8120   12.1723 C   0  0  0  0  0  0  0  0  0  0  0  0
   16.0713   -2.1126   11.0920 C   0  0  0  0  0  0  0  0  0  0  0  0
   16.7220   -1.0975   10.4104 C   0  0  0  0  0  0  0  0  0  0  0  0
   16.5298    0.2166   10.8130 C   0  0  0  0  0  0  0  0  0  0  0  0
   15.7212    0.5036   11.9194 C   0  0  0  0  0  0  0  0  0  0  0  0
   15.7197   -3.4054   14.1876 H   0  0  0  0  0  0  0  0  0  0  0  0
   17.3834   -3.5240   14.6140 H   0  0  0  0  0  0  0  0  0  0  0  0
   16.1510   -4.2009   15.7034 H   0  0  0  0  0  0  0  0  0  0  0  0
   18.0543   -1.2479   16.2673 H   0  0  0  0  0  0  0  0  0  0  0  0
   17.2364   -3.8533   17.6471 H   0  0  0  0  0  0  0  0  0  0  0  0
   18.2187   -2.6726   18.4970 H   0  0  0  0  0  0  0  0  0  0  0  0
   18.8928   -3.6773   15.9418 H   0  0  0  0  0  0  0  0  0  0  0  0
   17.1839   -0.2228   17.9878 H   0  0  0  0  0  0  0  0  0  0  0  0
   14.7216    0.0780   17.5188 H   0  0  0  0  0  0  0  0  0  0  0  0
   15.8922    0.3950   16.2354 H   0  0  0  0  0  0  0  0  0  0  0  0
   13.8808   -1.9662   17.9362 H   0  0  0  0  0  0  0  0  0  0  0  0
   15.0515   -3.1804   17.6465 H   0  0  0  0  0  0  0  0  0  0  0  0
   13.6748   -4.4225   16.2730 H   0  0  0  0  0  0  0  0  0  0  0  0
   12.6768   -3.9066   17.5750 H   0  0  0  0  0  0  0  0  0  0  0  0
   11.5644   -2.2314   16.2411 H   0  0  0  0  0  0  0  0  0  0  0  0
   11.5338   -3.7326   15.3527 H   0  0  0  0  0  0  0  0  0  0  0  0
   13.3182   -2.9680   13.9024 H   0  0  0  0  0  0  0  0  0  0  0  0
   12.0558   -1.7857   13.9615 H   0  0  0  0  0  0  0  0  0  0  0  0
   13.2020   -0.5265   15.6048 H   0  0  0  0  0  0  0  0  0  0  0  0
   13.1794   -0.0557   13.2926 H   0  0  0  0  0  0  0  0  0  0  0  0
   15.3225    1.3147   14.6153 H   0  0  0  0  0  0  0  0  0  0  0  0
   13.7427    1.4219   15.0938 H   0  0  0  0  0  0  0  0  0  0  0  0
   14.7031   -2.6477   12.5970 H   0  0  0  0  0  0  0  0  0  0  0  0
   16.1974   -3.1469   10.7859 H   0  0  0  0  0  0  0  0  0  0  0  0
   17.3684   -1.3280    9.5696 H   0  0  0  0  0  0  0  0  0  0  0  0
   17.0166    1.0274   10.2777 H   0  0  0  0  0  0  0  0  0  0  0  0
   15.5893    1.5495   12.1901 H   0  0  0  0  0  0  0  0  0  0  0  0
  1  2  1  0
  2  3  1  0
  3  4  1  0
  4  5  1  0
  3  6  1  0
  6  7  1  0
  7  8  1  0
  8  9  1  0
  9 10  1  0
 10 11  1  0
 11 12  1  0
 12 13  1  0
 13 14  1  0
 14 15  1  0
 14 16  1  0
 16 17  2  0
 17 18  1  0
 18 19  2  0
 19 20  1  0
 20 21  2  0
  8  2  1  0
 21 16  1  0
 13  8  1  0
  1 22  1  0
  1 23  1  0
  1 24  1  0
  3 25  1  0
  4 26  1  0
  4 27  1  0
  5 28  1  0
  6 29  1  0
  7 30  1  0
  7 31  1  0
  9 32  1  0
  9 33  1  0
 10 34  1  0
 10 35  1  0
 11 36  1  0
 11 37  1  0
 12 38  1  0
 12 39  1  0
 13 40  1  0
 14 41  1  0
 15 42  1  0
 15 43  1  0
 17 44  1  0
 18 45  1  0
 19 46  1  0
 20 47  1  0
 21 48  1  0
M  END
>  <Energy>  (69) 
96.514380272261931

>  <compound_id>  (69) 
1414

>  <target_id>  (69) 
1

>  <reference_id>  (69) 
4

>  <inspiration_ids>  (69) 
[4, 93]

>  <energy_score>  (69) 
-22.074759217460254

>  <distance_score>  (69) 
1.1803134512762157

>  <path>  (69) 
/opt/xchem-fragalysis-2/maxwin/BulkDock/SCRATCH/505732/C1414-P4/C1414-P4.minimised.mol

>  <scratch_subdir>  (69) 
/opt/xchem-fragalysis-2/maxwin/BulkDock/SCRATCH/505732/C1414-P4

>  <fragmenstein_runtime>  (69) 
2.206382989883423

>  <fragmenstein_outcome>  (69) 
too moved

>  <fragmenstein_mode>  (69) 
expansion

>  <fragmenstein_error>  (69) 


$$$$
C1414-P93
     RDKit          3D

 48 50  0  0  0  0  0  0  0  0999 V2000
   15.8396   -4.1029   16.0268 C   0  0  0  0  0  0  0  0  0  0  0  0
   15.5874   -2.7390   15.5432 N   0  0  0  0  0  0  0  0  0  0  0  0
   16.7727   -1.9025   15.8180 C   0  0  0  0  0  0  0  0  0  0  0  0
   18.1754   -2.5072   15.5344 C   0  0  0  0  0  0  0  0  0  0  0  0
   18.3102   -2.9025   14.1678 O   0  0  0  0  0  0  0  0  0  0  0  0
   16.5996   -1.4787   17.1950 N   0  0  0  0  0  0  0  0  0  0  0  0
   15.1995   -1.0722   17.2311 C   0  0  0  0  0  0  0  0  0  0  0  0
   14.4641   -2.0058   16.2132 C   0  0  0  0  0  0  0  0  0  0  0  0
   13.5260   -2.8966   17.0845 C   0  0  0  0  0  0  0  0  0  0  0  0
   12.5095   -3.7456   16.3507 C   0  0  0  0  0  0  0  0  0  0  0  0
   11.6485   -2.9137   15.4255 C   0  0  0  0  0  0  0  0  0  0  0  0
   12.4727   -2.0595   14.4858 C   0  0  0  0  0  0  0  0  0  0  0  0
   13.5159   -1.1785   15.2163 C   0  0  0  0  0  0  0  0  0  0  0  0
   14.0296   -0.1032   14.1790 C   0  0  0  0  0  0  0  0  0  0  0  0
   14.6090    1.0817   14.8244 N   0  0  0  0  0  0  0  0  0  0  0  0
   14.8064   -0.4619   12.9100 C   0  0  0  0  0  0  0  0  0  0  0  0
   15.2333   -1.7470   12.5677 C   0  0  0  0  0  0  0  0  0  0  0  0
   15.9131   -2.0095   11.3721 C   0  0  0  0  0  0  0  0  0  0  0  0
   16.1745   -0.9838   10.4751 C   0  0  0  0  0  0  0  0  0  0  0  0
   15.7464    0.3030   10.7719 C   0  0  0  0  0  0  0  0  0  0  0  0
   15.0698    0.5567   11.9701 C   0  0  0  0  0  0  0  0  0  0  0  0
   14.9782   -4.7505   15.8984 H   0  0  0  0  0  0  0  0  0  0  0  0
   16.6191   -4.5916   15.4331 H   0  0  0  0  0  0  0  0  0  0  0  0
   16.1405   -4.1456   17.0799 H   0  0  0  0  0  0  0  0  0  0  0  0
   16.7085   -1.0275   15.1588 H   0  0  0  0  0  0  0  0  0  0  0  0
   18.3942   -3.3714   16.1699 H   0  0  0  0  0  0  0  0  0  0  0  0
   18.9498   -1.7583   15.7338 H   0  0  0  0  0  0  0  0  0  0  0  0
   17.4219   -3.1827   13.8704 H   0  0  0  0  0  0  0  0  0  0  0  0
   17.2123   -0.6939   17.4037 H   0  0  0  0  0  0  0  0  0  0  0  0
   14.8365   -1.1801   18.2590 H   0  0  0  0  0  0  0  0  0  0  0  0
   15.1188   -0.0152   16.9848 H   0  0  0  0  0  0  0  0  0  0  0  0
   12.9446   -2.2159   17.6965 H   0  0  0  0  0  0  0  0  0  0  0  0
   14.0841   -3.5135   17.7985 H   0  0  0  0  0  0  0  0  0  0  0  0
   13.0077   -4.5304   15.7985 H   0  0  0  0  0  0  0  0  0  0  0  0
   11.8742   -4.2647   17.0728 H   0  0  0  0  0  0  0  0  0  0  0  0
   11.0063   -2.2498   16.0110 H   0  0  0  0  0  0  0  0  0  0  0  0
   10.9824   -3.5629   14.8489 H   0  0  0  0  0  0  0  0  0  0  0  0
   12.9364   -2.6878   13.7302 H   0  0  0  0  0  0  0  0  0  0  0  0
   11.7740   -1.4160   13.9376 H   0  0  0  0  0  0  0  0  0  0  0  0
   12.9022   -0.5770   15.9105 H   0  0  0  0  0  0  0  0  0  0  0  0
   13.0943    0.3002   13.7592 H   0  0  0  0  0  0  0  0  0  0  0  0
   15.5741    0.8906   15.0792 H   0  0  0  0  0  0  0  0  0  0  0  0
   14.0927    1.3322   15.6611 H   0  0  0  0  0  0  0  0  0  0  0  0
   15.0524   -2.5888   13.2179 H   0  0  0  0  0  0  0  0  0  0  0  0
   16.2377   -3.0218   11.1482 H   0  0  0  0  0  0  0  0  0  0  0  0
   16.7105   -1.1854    9.5540 H   0  0  0  0  0  0  0  0  0  0  0  0
   15.9404    1.1170   10.0791 H   0  0  0  0  0  0  0  0  0  0  0  0
   14.7446    1.5753   12.1783 H   0  0  0  0  0  0  0  0  0  0  0  0
  1  2  1  0
  2  3  1  0
  3  4  1  0
  4  5  1  0
  3  6  1  0
  6  7  1  0
  7  8  1  0
  8  9  1  0
  9 10  1  0
 10 11  1  0
 11 12  1  0
 12 13  1  0
 13 14  1  0
 14 15  1  0
 14 16  1  0
 16 17  2  0
 17 18  1  0
 18 19  2  0
 19 20  1  0
 20 21  2  0
  8  2  1  0
 21 16  1  0
 13  8  1  0
  1 22  1  0
  1 23  1  0
  1 24  1  0
  3 25  1  0
  4 26  1  0
  4 27  1  0
  5 28  1  0
  6 29  1  0
  7 30  1  0
  7 31  1  0
  9 32  1  0
  9 33  1  0
 10 34  1  0
 10 35  1  0
 11 36  1  0
 11 37  1  0
 12 38  1  0
 12 39  1  0
 13 40  1  0
 14 41  1  0
 15 42  1  0
 15 43  1  0
 17 44  1  0
 18 45  1  0
 19 46  1  0
 20 47  1  0
 21 48  1  0
M  END
>  <Energy>  (70) 
86.306339984152004

>  <compound_id>  (70) 
1414

>  <target_id>  (70) 
1

>  <reference_id>  (70) 
93

>  <inspiration_ids>  (70) 
[4, 93]

>  <energy_score>  (70) 
-32.28279950556839

>  <distance_score>  (70) 
1.0530498547260283

>  <path>  (70) 
/opt/xchem-fragalysis-2/maxwin/BulkDock/SCRATCH/505732/C1414-P93/C1414-P93.minimised.mol

>  <scratch_subdir>  (70) 
/opt/xchem-fragalysis-2/maxwin/BulkDock/SCRATCH/505732/C1414-P93

>  <fragmenstein_runtime>  (70) 
2.3269479274749756

>  <fragmenstein_outcome>  (70) 
too moved

>  <fragmenstein_mode>  (70) 
expansion

>  <fragmenstein_error>  (70) 


$$$$
C1415-P4
     RDKit          3D

 47 49  0  0  0  0  0  0  0  0999 V2000
   17.0235   -0.5793   15.6604 N   0  0  0  0  0  0  0  0  0  0  0  0
   16.0895   -0.5885   14.5400 C   0  0  0  0  0  0  0  0  0  0  0  0
   16.8841   -0.8449   13.2570 C   0  0  0  0  0  0  0  0  0  0  0  0
   17.1902   -2.1414   12.8120 C   0  0  0  0  0  0  0  0  0  0  0  0
   17.6564   -2.3615   11.5145 C   0  0  0  0  0  0  0  0  0  0  0  0
   17.8942   -1.2847   10.6667 C   0  0  0  0  0  0  0  0  0  0  0  0
   17.7199    0.0148   11.1347 C   0  0  0  0  0  0  0  0  0  0  0  0
   17.2465    0.2345   12.4319 C   0  0  0  0  0  0  0  0  0  0  0  0
   14.8971   -1.5828   14.7430 C   0  0  0  0  0  0  0  0  0  0  0  0
   14.5425   -1.8146   16.2252 C   0  0  0  0  0  0  0  0  0  0  0  0
   13.4817   -2.8905   16.4354 C   0  0  0  0  0  0  0  0  0  0  0  0
   12.2805   -2.7672   15.5138 C   0  0  0  0  0  0  0  0  0  0  0  0
   12.6536   -2.5004   14.0589 C   0  0  0  0  0  0  0  0  0  0  0  0
   13.6304   -1.2998   13.8408 C   0  0  0  0  0  0  0  0  0  0  0  0
   14.0343   -1.2651   12.3664 C   0  0  0  0  0  0  0  0  0  0  0  0
   14.4978   -0.0030   11.8082 N   0  0  0  0  0  0  0  0  0  0  0  0
   13.6557    1.1308   12.0333 C   0  0  0  0  0  0  0  0  0  0  0  0
   14.3299    2.2567   11.5209 O   0  0  0  0  0  0  0  0  0  0  0  0
   13.4423    1.3128   13.5162 C   0  0  0  0  0  0  0  0  0  0  0  0
   12.8879    0.0214   14.1081 C   0  0  0  0  0  0  0  0  0  0  0  0
   11.5401   -0.0123   13.5745 O   0  0  0  0  0  0  0  0  0  0  0  0
   16.6071   -0.1078   16.4591 H   0  0  0  0  0  0  0  0  0  0  0  0
   17.8444   -0.0308   15.4048 H   0  0  0  0  0  0  0  0  0  0  0  0
   15.7054    0.4250   14.5062 H   0  0  0  0  0  0  0  0  0  0  0  0
   17.0185   -3.0031   13.4512 H   0  0  0  0  0  0  0  0  0  0  0  0
   17.8333   -3.3755   11.1655 H   0  0  0  0  0  0  0  0  0  0  0  0
   18.2596   -1.4595    9.6588 H   0  0  0  0  0  0  0  0  0  0  0  0
   17.9489    0.8592   10.4905 H   0  0  0  0  0  0  0  0  0  0  0  0
   17.0856    1.2546   12.7706 H   0  0  0  0  0  0  0  0  0  0  0  0
   15.2520   -2.5732   14.4340 H   0  0  0  0  0  0  0  0  0  0  0  0
   15.4286   -2.1552   16.7758 H   0  0  0  0  0  0  0  0  0  0  0  0
   14.2682   -0.8653   16.6815 H   0  0  0  0  0  0  0  0  0  0  0  0
   13.9487   -3.8699   16.2989 H   0  0  0  0  0  0  0  0  0  0  0  0
   13.1530   -2.8876   17.4769 H   0  0  0  0  0  0  0  0  0  0  0  0
   11.6334   -1.9606   15.8656 H   0  0  0  0  0  0  0  0  0  0  0  0
   11.6774   -3.6799   15.5762 H   0  0  0  0  0  0  0  0  0  0  0  0
   13.0967   -3.3750   13.5986 H   0  0  0  0  0  0  0  0  0  0  0  0
   11.7356   -2.3981   13.4785 H   0  0  0  0  0  0  0  0  0  0  0  0
   14.7415   -2.0652   12.1368 H   0  0  0  0  0  0  0  0  0  0  0  0
   13.1964   -1.5501   11.7937 H   0  0  0  0  0  0  0  0  0  0  0  0
   14.6640   -0.1217   10.8106 H   0  0  0  0  0  0  0  0  0  0  0  0
   12.7029    1.0593   11.5062 H   0  0  0  0  0  0  0  0  0  0  0  0
   15.2593    1.9740   11.5232 H   0  0  0  0  0  0  0  0  0  0  0  0
   12.7274    2.1359   13.6539 H   0  0  0  0  0  0  0  0  0  0  0  0
   14.3453    1.6652   14.0165 H   0  0  0  0  0  0  0  0  0  0  0  0
   12.8762    0.1340   15.1839 H   0  0  0  0  0  0  0  0  0  0  0  0
   11.0284   -0.7290   13.9928 H   0  0  0  0  0  0  0  0  0  0  0  0
  1  2  1  0
  2  3  1  0
  3  4  2  0
  4  5  1  0
  5  6  2  0
  6  7  1  0
  7  8  2  0
  2  9  1  0
  9 10  1  0
 10 11  1  0
 11 12  1  0
 12 13  1  0
 13 14  1  0
 14 15  1  0
 15 16  1  0
 16 17  1  0
 17 18  1  0
 17 19  1  0
 19 20  1  0
 20 21  1  0
  8  3  1  0
 14  9  1  0
 20 14  1  0
  1 22  1  0
  1 23  1  0
  2 24  1  0
  4 25  1  0
  5 26  1  0
  6 27  1  0
  7 28  1  0
  8 29  1  0
  9 30  1  0
 10 31  1  0
 10 32  1  0
 11 33  1  0
 11 34  1  0
 12 35  1  0
 12 36  1  0
 13 37  1  0
 13 38  1  0
 15 39  1  0
 15 40  1  0
 16 41  1  0
 17 42  1  0
 18 43  1  0
 19 44  1  0
 19 45  1  0
 20 46  1  0
 21 47  1  0
M  END
>  <Energy>  (71) 
21.143063967568352

>  <compound_id>  (71) 
1415

>  <target_id>  (71) 
1

>  <reference_id>  (71) 
4

>  <inspiration_ids>  (71) 
[4, 97]

>  <energy_score>  (71) 
-25.03480466035137

>  <distance_score>  (71) 
1.8280963508306705

>  <path>  (71) 
/opt/xchem-fragalysis-2/maxwin/BulkDock/SCRATCH/505732/C1415-P4/C1415-P4.minimised.mol

>  <scratch_subdir>  (71) 
/opt/xchem-fragalysis-2/maxwin/BulkDock/SCRATCH/505732/C1415-P4

>  <fragmenstein_runtime>  (71) 
3.298356056213379

>  <fragmenstein_outcome>  (71) 
too moved

>  <fragmenstein_mode>  (71) 
expansion

>  <fragmenstein_error>  (71) 


$$$$
C1415-P97
     RDKit          3D

 47 49  0  0  0  0  0  0  0  0999 V2000
   15.2675    0.8302   15.2278 N   0  0  0  0  0  0  0  0  0  0  0  0
   15.3203   -0.5199   14.6929 C   0  0  0  0  0  0  0  0  0  0  0  0
   15.7139   -0.6288   13.2077 C   0  0  0  0  0  0  0  0  0  0  0  0
   15.9092   -1.8988   12.6268 C   0  0  0  0  0  0  0  0  0  0  0  0
   16.2257   -2.0516   11.2755 C   0  0  0  0  0  0  0  0  0  0  0  0
   16.3845   -0.9321   10.4715 C   0  0  0  0  0  0  0  0  0  0  0  0
   16.2613    0.3360   11.0303 C   0  0  0  0  0  0  0  0  0  0  0  0
   15.9560    0.4850   12.3887 C   0  0  0  0  0  0  0  0  0  0  0  0
   14.1184   -1.4153   15.1179 C   0  0  0  0  0  0  0  0  0  0  0  0
   14.2409   -1.8964   16.5763 C   0  0  0  0  0  0  0  0  0  0  0  0
   13.5882   -3.2697   16.7003 C   0  0  0  0  0  0  0  0  0  0  0  0
   12.1859   -3.2910   16.1155 C   0  0  0  0  0  0  0  0  0  0  0  0
   11.9704   -2.5689   14.7833 C   0  0  0  0  0  0  0  0  0  0  0  0
   12.6029   -1.1244   14.7369 C   0  0  0  0  0  0  0  0  0  0  0  0
   12.4725   -0.6055   13.3082 C   0  0  0  0  0  0  0  0  0  0  0  0
   12.7725    0.7986   13.0452 N   0  0  0  0  0  0  0  0  0  0  0  0
   12.1404    1.7464   13.9151 C   0  0  0  0  0  0  0  0  0  0  0  0
   13.1400    2.4384   14.6232 O   0  0  0  0  0  0  0  0  0  0  0  0
   11.1922    1.1138   14.8967 C   0  0  0  0  0  0  0  0  0  0  0  0
   11.7806   -0.1131   15.6170 C   0  0  0  0  0  0  0  0  0  0  0  0
   10.5909   -0.7191   16.1689 O   0  0  0  0  0  0  0  0  0  0  0  0
   15.3310    0.7944   16.2441 H   0  0  0  0  0  0  0  0  0  0  0  0
   14.3593    1.2652   15.0457 H   0  0  0  0  0  0  0  0  0  0  0  0
   16.2100   -0.9507   15.1767 H   0  0  0  0  0  0  0  0  0  0  0  0
   15.8384   -2.8039   13.2247 H   0  0  0  0  0  0  0  0  0  0  0  0
   16.3605   -3.0478   10.8641 H   0  0  0  0  0  0  0  0  0  0  0  0
   16.6340   -1.0423    9.4213 H   0  0  0  0  0  0  0  0  0  0  0  0
   16.4223    1.2176   10.4152 H   0  0  0  0  0  0  0  0  0  0  0  0
   15.9095    1.4902   12.8027 H   0  0  0  0  0  0  0  0  0  0  0  0
   14.3355   -2.3284   14.5550 H   0  0  0  0  0  0  0  0  0  0  0  0
   15.2911   -1.9961   16.8747 H   0  0  0  0  0  0  0  0  0  0  0  0
   13.7892   -1.1851   17.2727 H   0  0  0  0  0  0  0  0  0  0  0  0
   14.2092   -4.0132   16.1889 H   0  0  0  0  0  0  0  0  0  0  0  0
   13.5577   -3.5720   17.7537 H   0  0  0  0  0  0  0  0  0  0  0  0
   11.5668   -2.7840   16.8299 H   0  0  0  0  0  0  0  0  0  0  0  0
   11.8112   -4.3153   16.0721 H   0  0  0  0  0  0  0  0  0  0  0  0
   12.3888   -3.1674   13.9698 H   0  0  0  0  0  0  0  0  0  0  0  0
   10.8994   -2.5508   14.5629 H   0  0  0  0  0  0  0  0  0  0  0  0
   13.0706   -1.2300   12.6384 H   0  0  0  0  0  0  0  0  0  0  0  0
   11.4340   -0.7432   13.0209 H   0  0  0  0  0  0  0  0  0  0  0  0
   13.7739    0.9452   13.0788 H   0  0  0  0  0  0  0  0  0  0  0  0
   11.5930    2.4841   13.3178 H   0  0  0  0  0  0  0  0  0  0  0  0
   13.5679    3.0293   13.9775 H   0  0  0  0  0  0  0  0  0  0  0  0
   10.2688    0.8360   14.3684 H   0  0  0  0  0  0  0  0  0  0  0  0
   10.8829    1.8434   15.6575 H   0  0  0  0  0  0  0  0  0  0  0  0
   12.4055    0.2379   16.4402 H   0  0  0  0  0  0  0  0  0  0  0  0
   10.0339   -0.9739   15.4064 H   0  0  0  0  0  0  0  0  0  0  0  0
  1  2  1  0
  2  3  1  0
  3  4  2  0
  4  5  1  0
  5  6  2  0
  6  7  1  0
  7  8  2  0
  2  9  1  0
  9 10  1  0
 10 11  1  0
 11 12  1  0
 12 13  1  0
 13 14  1  0
 14 15  1  0
 15 16  1  0
 16 17  1  0
 17 18  1  0
 17 19  1  0
 19 20  1  0
 20 21  1  0
  8  3  1  0
 14  9  1  0
 20 14  1  0
  1 22  1  0
  1 23  1  0
  2 24  1  0
  4 25  1  0
  5 26  1  0
  6 27  1  0
  7 28  1  0
  8 29  1  0
  9 30  1  0
 10 31  1  0
 10 32  1  0
 11 33  1  0
 11 34  1  0
 12 35  1  0
 12 36  1  0
 13 37  1  0
 13 38  1  0
 15 39  1  0
 15 40  1  0
 16 41  1  0
 17 42  1  0
 18 43  1  0
 19 44  1  0
 19 45  1  0
 20 46  1  0
 21 47  1  0
M  END
>  <Energy>  (72) 
27.241188006186839

>  <compound_id>  (72) 
1415

>  <target_id>  (72) 
1

>  <reference_id>  (72) 
97

>  <inspiration_ids>  (72) 
[4, 97]

>  <energy_score>  (72) 
-18.936680621732847

>  <distance_score>  (72) 
0.9630408075226339

>  <path>  (72) 
/opt/xchem-fragalysis-2/maxwin/BulkDock/SCRATCH/505732/C1415-P97/C1415-P97.minimised.mol

>  <scratch_subdir>  (72) 
/opt/xchem-fragalysis-2/maxwin/BulkDock/SCRATCH/505732/C1415-P97

>  <fragmenstein_runtime>  (72) 
2.985740900039673

>  <fragmenstein_outcome>  (72) 
acceptable

>  <fragmenstein_mode>  (72) 
expansion

>  <fragmenstein_error>  (72) 


$$$$
C1417-P4
     RDKit          3D

 48 50  0  0  0  0  0  0  0  0999 V2000
   14.9858    1.0604   14.0558 N   0  0  0  0  0  0  0  0  0  0  0  0
   14.2253   -0.1064   13.6103 C   0  0  0  0  0  0  0  0  0  0  0  0
   14.9747   -0.7263   12.4370 C   0  0  0  0  0  0  0  0  0  0  0  0
   15.7208   -1.9056   12.5444 C   0  0  0  0  0  0  0  0  0  0  0  0
   16.4958   -2.3529   11.4726 C   0  0  0  0  0  0  0  0  0  0  0  0
   16.5471   -1.6303   10.2850 C   0  0  0  0  0  0  0  0  0  0  0  0
   15.8086   -0.4618   10.1549 C   0  0  0  0  0  0  0  0  0  0  0  0
   15.0279   -0.0159   11.2211 C   0  0  0  0  0  0  0  0  0  0  0  0
   13.8147   -1.0562   14.7288 C   0  0  0  0  0  0  0  0  0  0  0  0
   12.6727   -1.8634   14.4915 C   0  0  0  0  0  0  0  0  0  0  0  0
   12.2631   -2.8511   15.3900 C   0  0  0  0  0  0  0  0  0  0  0  0
   13.0078   -3.0876   16.5381 C   0  0  0  0  0  0  0  0  0  0  0  0
   14.1200   -2.2887   16.8156 C   0  0  0  0  0  0  0  0  0  0  0  0
   14.5009   -1.2425   15.9467 C   0  0  0  0  0  0  0  0  0  0  0  0
   15.7286   -0.5034   16.3617 C   0  0  0  0  0  0  0  0  0  0  0  0
   16.7318   -0.8304   15.8351 O   0  0  0  0  0  0  0  0  0  0  0  0
   15.4855    0.4990   17.4890 N   0  0  0  0  0  0  0  0  0  0  0  0
   15.2250    1.9169   16.9301 C   0  0  0  0  0  0  0  0  0  0  0  0
   14.6410    3.0991   17.7501 C   0  0  0  0  0  0  0  0  0  0  0  0
   15.4757    3.4175   18.9687 C   0  0  0  0  0  0  0  0  0  0  0  0
   14.7363    4.2601   20.0020 C   0  0  0  0  0  0  0  0  0  0  0  0
   14.4036    5.5164   19.4283 O   0  0  0  0  0  0  0  0  0  0  0  0
   15.8826    2.0703   19.5015 C   0  0  0  0  0  0  0  0  0  0  0  0
   16.4517    1.2807   18.3207 C   0  0  0  0  0  0  0  0  0  0  0  0
   15.9381    0.7276   14.2490 H   0  0  0  0  0  0  0  0  0  0  0  0
   15.1052    1.6944   13.2688 H   0  0  0  0  0  0  0  0  0  0  0  0
   13.2830    0.2963   13.2113 H   0  0  0  0  0  0  0  0  0  0  0  0
   15.7436   -2.4803   13.4683 H   0  0  0  0  0  0  0  0  0  0  0  0
   17.0849   -3.2595   11.5761 H   0  0  0  0  0  0  0  0  0  0  0  0
   17.1745   -1.9826    9.4714 H   0  0  0  0  0  0  0  0  0  0  0  0
   15.8470    0.1087    9.2316 H   0  0  0  0  0  0  0  0  0  0  0  0
   14.4719    0.9122   11.1062 H   0  0  0  0  0  0  0  0  0  0  0  0
   12.1035   -1.7448   13.5702 H   0  0  0  0  0  0  0  0  0  0  0  0
   11.3960   -3.4662   15.1603 H   0  0  0  0  0  0  0  0  0  0  0  0
   12.7276   -3.8907   17.2157 H   0  0  0  0  0  0  0  0  0  0  0  0
   14.6983   -2.4734   17.7191 H   0  0  0  0  0  0  0  0  0  0  0  0
   16.0476    2.2439   16.2698 H   0  0  0  0  0  0  0  0  0  0  0  0
   14.4036    1.7284   16.2309 H   0  0  0  0  0  0  0  0  0  0  0  0
   14.5678    3.9796   17.0995 H   0  0  0  0  0  0  0  0  0  0  0  0
   13.6233    2.8848   18.0727 H   0  0  0  0  0  0  0  0  0  0  0  0
   16.3658    3.9705   18.6387 H   0  0  0  0  0  0  0  0  0  0  0  0
   13.8130    3.7722   20.3325 H   0  0  0  0  0  0  0  0  0  0  0  0
   15.3700    4.4371   20.8773 H   0  0  0  0  0  0  0  0  0  0  0  0
   13.9748    6.0453   20.1236 H   0  0  0  0  0  0  0  0  0  0  0  0
   16.6507    2.1938   20.2738 H   0  0  0  0  0  0  0  0  0  0  0  0
   15.0403    1.5337   19.9557 H   0  0  0  0  0  0  0  0  0  0  0  0
   17.0066    0.4568   18.7990 H   0  0  0  0  0  0  0  0  0  0  0  0
   17.2755    1.7696   17.7700 H   0  0  0  0  0  0  0  0  0  0  0  0
  1  2  1  0
  2  3  1  0
  3  4  2  0
  4  5  1  0
  5  6  2  0
  6  7  1  0
  7  8  2  0
  2  9  1  0
  9 10  2  0
 10 11  1  0
 11 12  2  0
 12 13  1  0
 13 14  2  0
 14 15  1  0
 15 16  2  0
 15 17  1  0
 17 18  1  0
 18 19  1  0
 19 20  1  0
 20 21  1  0
 21 22  1  0
 20 23  1  0
 23 24  1  0
  8  3  1  0
 14  9  1  0
 24 17  1  0
  1 25  1  0
  1 26  1  0
  2 27  1  0
  4 28  1  0
  5 29  1  0
  6 30  1  0
  7 31  1  0
  8 32  1  0
 10 33  1  0
 11 34  1  0
 12 35  1  0
 13 36  1  0
 18 37  1  0
 18 38  1  0
 19 39  1  0
 19 40  1  0
 20 41  1  0
 21 42  1  0
 21 43  1  0
 22 44  1  0
 23 45  1  0
 23 46  1  0
 24 47  1  0
 24 48  1  0
M  END
>  <Energy>  (73) 
131.07332726486638

>  <compound_id>  (73) 
1417

>  <target_id>  (73) 
1

>  <reference_id>  (73) 
4

>  <inspiration_ids>  (73) 
[4, 103]

>  <energy_score>  (73) 
35.94199616223733

>  <distance_score>  (73) 
1.928596440324265

>  <path>  (73) 
/opt/xchem-fragalysis-2/maxwin/BulkDock/SCRATCH/505732/C1417-P4/C1417-P4.minimised.mol

>  <scratch_subdir>  (73) 
/opt/xchem-fragalysis-2/maxwin/BulkDock/SCRATCH/505732/C1417-P4

>  <fragmenstein_runtime>  (73) 
3.719621419906616

>  <fragmenstein_outcome>  (73) 
too moved

>  <fragmenstein_mode>  (73) 
expansion

>  <fragmenstein_error>  (73) 


$$$$
C1417-P103
     RDKit          3D

 48 50  0  0  0  0  0  0  0  0999 V2000
   14.5415    1.1291   14.0141 N   0  0  0  0  0  0  0  0  0  0  0  0
   13.9406   -0.1374   13.5844 C   0  0  0  0  0  0  0  0  0  0  0  0
   14.8319   -0.7428   12.5064 C   0  0  0  0  0  0  0  0  0  0  0  0
   15.7046   -1.8097   12.7483 C   0  0  0  0  0  0  0  0  0  0  0  0
   16.5921   -2.2394   11.7597 C   0  0  0  0  0  0  0  0  0  0  0  0
   16.6284   -1.6101   10.5195 C   0  0  0  0  0  0  0  0  0  0  0  0
   15.7657   -0.5534   10.2563 C   0  0  0  0  0  0  0  0  0  0  0  0
   14.8759   -0.1247   11.2412 C   0  0  0  0  0  0  0  0  0  0  0  0
   13.5216   -1.0648   14.7241 C   0  0  0  0  0  0  0  0  0  0  0  0
   12.4546   -1.9572   14.4716 C   0  0  0  0  0  0  0  0  0  0  0  0
   12.0524   -2.9088   15.4120 C   0  0  0  0  0  0  0  0  0  0  0  0
   12.7199   -3.0069   16.6265 C   0  0  0  0  0  0  0  0  0  0  0  0
   13.7446   -2.1105   16.9262 C   0  0  0  0  0  0  0  0  0  0  0  0
   14.1336   -1.1332   15.9941 C   0  0  0  0  0  0  0  0  0  0  0  0
   15.2833   -0.2703   16.3790 C   0  0  0  0  0  0  0  0  0  0  0  0
   16.3023   -0.4252   15.8115 O   0  0  0  0  0  0  0  0  0  0  0  0
   14.9248    0.6708   17.5104 N   0  0  0  0  0  0  0  0  0  0  0  0
   14.4127    2.0099   16.9754 C   0  0  0  0  0  0  0  0  0  0  0  0
   13.4975    2.8630   17.8632 C   0  0  0  0  0  0  0  0  0  0  0  0
   14.2758    3.4362   19.0263 C   0  0  0  0  0  0  0  0  0  0  0  0
   13.4077    4.0111   20.1410 C   0  0  0  0  0  0  0  0  0  0  0  0
   12.5149    4.9897   19.6289 O   0  0  0  0  0  0  0  0  0  0  0  0
   15.1416    2.3015   19.5173 C   0  0  0  0  0  0  0  0  0  0  0  0
   15.7840    1.6114   18.3119 C   0  0  0  0  0  0  0  0  0  0  0  0
   14.6724    1.7198   13.1956 H   0  0  0  0  0  0  0  0  0  0  0  0
   15.5011    0.9053   14.3073 H   0  0  0  0  0  0  0  0  0  0  0  0
   13.0000    0.1499   13.0925 H   0  0  0  0  0  0  0  0  0  0  0  0
   15.7385   -2.3014   13.7180 H   0  0  0  0  0  0  0  0  0  0  0  0
   17.2767   -3.0550   11.9755 H   0  0  0  0  0  0  0  0  0  0  0  0
   17.3390   -1.9421    9.7690 H   0  0  0  0  0  0  0  0  0  0  0  0
   15.7906   -0.0550    9.2917 H   0  0  0  0  0  0  0  0  0  0  0  0
   14.2232    0.7181   11.0233 H   0  0  0  0  0  0  0  0  0  0  0  0
   11.9398   -1.9326   13.5120 H   0  0  0  0  0  0  0  0  0  0  0  0
   11.2439   -3.5953   15.1714 H   0  0  0  0  0  0  0  0  0  0  0  0
   12.4501   -3.7800   17.3409 H   0  0  0  0  0  0  0  0  0  0  0  0
   14.2632   -2.1840   17.8800 H   0  0  0  0  0  0  0  0  0  0  0  0
   15.1468    2.5840   16.3833 H   0  0  0  0  0  0  0  0  0  0  0  0
   13.7020    1.6910   16.2030 H   0  0  0  0  0  0  0  0  0  0  0  0
   13.0471    3.6661   17.2685 H   0  0  0  0  0  0  0  0  0  0  0  0
   12.6876    2.2296   18.2215 H   0  0  0  0  0  0  0  0  0  0  0  0
   14.9136    4.2408   18.6353 H   0  0  0  0  0  0  0  0  0  0  0  0
   12.8231    3.2355   20.6474 H   0  0  0  0  0  0  0  0  0  0  0  0
   14.0365    4.4933   20.8966 H   0  0  0  0  0  0  0  0  0  0  0  0
   11.7924    4.4904   19.1890 H   0  0  0  0  0  0  0  0  0  0  0  0
   15.9202    2.6867   20.1860 H   0  0  0  0  0  0  0  0  0  0  0  0
   14.5543    1.5713   20.0889 H   0  0  0  0  0  0  0  0  0  0  0  0
   16.4919    0.8965   18.7624 H   0  0  0  0  0  0  0  0  0  0  0  0
   16.4896    2.2339   17.7329 H   0  0  0  0  0  0  0  0  0  0  0  0
  1  2  1  0
  2  3  1  0
  3  4  2  0
  4  5  1  0
  5  6  2  0
  6  7  1  0
  7  8  2  0
  2  9  1  0
  9 10  2  0
 10 11  1  0
 11 12  2  0
 12 13  1  0
 13 14  2  0
 14 15  1  0
 15 16  2  0
 15 17  1  0
 17 18  1  0
 18 19  1  0
 19 20  1  0
 20 21  1  0
 21 22  1  0
 20 23  1  0
 23 24  1  0
  8  3  1  0
 14  9  1  0
 24 17  1  0
  1 25  1  0
  1 26  1  0
  2 27  1  0
  4 28  1  0
  5 29  1  0
  6 30  1  0
  7 31  1  0
  8 32  1  0
 10 33  1  0
 11 34  1  0
 12 35  1  0
 13 36  1  0
 18 37  1  0
 18 38  1  0
 19 39  1  0
 19 40  1  0
 20 41  1  0
 21 42  1  0
 21 43  1  0
 22 44  1  0
 23 45  1  0
 23 46  1  0
 24 47  1  0
 24 48  1  0
M  END
>  <Energy>  (74) 
124.60049249562448

>  <compound_id>  (74) 
1417

>  <target_id>  (74) 
1

>  <reference_id>  (74) 
103

>  <inspiration_ids>  (74) 
[4, 103]

>  <energy_score>  (74) 
29.46916139299435

>  <distance_score>  (74) 
1.6411522364077022

>  <path>  (74) 
/opt/xchem-fragalysis-2/maxwin/BulkDock/SCRATCH/505732/C1417-P103/C1417-P103.minimised.mol

>  <scratch_subdir>  (74) 
/opt/xchem-fragalysis-2/maxwin/BulkDock/SCRATCH/505732/C1417-P103

>  <fragmenstein_runtime>  (74) 
3.6647422313690186

>  <fragmenstein_outcome>  (74) 
too moved

>  <fragmenstein_mode>  (74) 
expansion

>  <fragmenstein_error>  (74) 


$$$$
C1418-P4
     RDKit          3D

 27 28  0  0  0  0  0  0  0  0999 V2000
   14.0278    0.9334   14.3967 N   0  0  0  0  0  0  0  0  0  0  0  0
   14.6761   -0.3782   14.2865 C   0  0  0  0  0  0  0  0  0  0  0  0
   15.1135   -0.7172   12.8593 C   0  0  0  0  0  0  0  0  0  0  0  0
   15.7112   -1.9631   12.5978 C   0  0  0  0  0  0  0  0  0  0  0  0
   16.2350   -2.2626   11.3392 C   0  0  0  0  0  0  0  0  0  0  0  0
   16.1876   -1.3176   10.3213 C   0  0  0  0  0  0  0  0  0  0  0  0
   15.5910   -0.0832   10.5513 C   0  0  0  0  0  0  0  0  0  0  0  0
   15.0511    0.2116   11.8059 C   0  0  0  0  0  0  0  0  0  0  0  0
   13.8276   -1.4468   14.9670 C   0  0  0  0  0  0  0  0  0  0  0  0
   12.6273   -1.8542   14.3555 C   0  0  0  0  0  0  0  0  0  0  0  0
   11.8321   -2.8562   14.9096 C   0  0  0  0  0  0  0  0  0  0  0  0
   12.2244   -3.4879   16.0804 C   0  0  0  0  0  0  0  0  0  0  0  0
   13.3832   -3.0843   16.7282 C   0  0  0  0  0  0  0  0  0  0  0  0
   14.1653   -2.0520   16.1942 C   0  0  0  0  0  0  0  0  0  0  0  0
   15.7088   -1.3956   17.4411 I   0  0  0  0  0  0  0  0  0  0  0  0
   14.7360    1.6478   14.2419 H   0  0  0  0  0  0  0  0  0  0  0  0
   13.7047    1.0613   15.3525 H   0  0  0  0  0  0  0  0  0  0  0  0
   15.6271   -0.2764   14.8170 H   0  0  0  0  0  0  0  0  0  0  0  0
   15.7920   -2.7139   13.3821 H   0  0  0  0  0  0  0  0  0  0  0  0
   16.6950   -3.2307   11.1602 H   0  0  0  0  0  0  0  0  0  0  0  0
   16.6200   -1.5444    9.3527 H   0  0  0  0  0  0  0  0  0  0  0  0
   15.5457    0.6559    9.7562 H   0  0  0  0  0  0  0  0  0  0  0  0
   14.5942    1.1869   11.9522 H   0  0  0  0  0  0  0  0  0  0  0  0
   12.3076   -1.3878   13.4263 H   0  0  0  0  0  0  0  0  0  0  0  0
   10.9214   -3.1586   14.4034 H   0  0  0  0  0  0  0  0  0  0  0  0
   11.6342   -4.3042   16.4863 H   0  0  0  0  0  0  0  0  0  0  0  0
   13.6458   -3.5706   17.6646 H   0  0  0  0  0  0  0  0  0  0  0  0
  1  2  1  0
  2  3  1  0
  3  4  2  0
  4  5  1  0
  5  6  2  0
  6  7  1  0
  7  8  2  0
  2  9  1  0
  9 10  2  0
 10 11  1  0
 11 12  2  0
 12 13  1  0
 13 14  2  0
 14 15  1  0
  8  3  1  0
 14  9  1  0
  1 16  1  0
  1 17  1  0
  2 18  1  0
  4 19  1  0
  5 20  1  0
  6 21  1  0
  7 22  1  0
  8 23  1  0
 10 24  1  0
 11 25  1  0
 12 26  1  0
 13 27  1  0
M  END
>  <Energy>  (75) 
39.913562143948589

>  <compound_id>  (75) 
1418

>  <target_id>  (75) 
1

>  <reference_id>  (75) 
4

>  <inspiration_ids>  (75) 
[4, 106]

>  <energy_score>  (75) 
-12.43185429443345

>  <distance_score>  (75) 
0.886578455273024

>  <path>  (75) 
/opt/xchem-fragalysis-2/maxwin/BulkDock/SCRATCH/505732/C1418-P4/C1418-P4.minimised.mol

>  <scratch_subdir>  (75) 
/opt/xchem-fragalysis-2/maxwin/BulkDock/SCRATCH/505732/C1418-P4

>  <fragmenstein_runtime>  (75) 
1.2061471939086914

>  <fragmenstein_outcome>  (75) 
acceptable

>  <fragmenstein_mode>  (75) 
expansion

>  <fragmenstein_error>  (75) 


$$$$
C1418-P106
     RDKit          3D

 27 28  0  0  0  0  0  0  0  0999 V2000
   13.9169    1.0536   14.5749 N   0  0  0  0  0  0  0  0  0  0  0  0
   14.5398   -0.2666   14.4285 C   0  0  0  0  0  0  0  0  0  0  0  0
   14.9948   -0.5808   13.0005 C   0  0  0  0  0  0  0  0  0  0  0  0
   15.7025   -1.7719   12.7523 C   0  0  0  0  0  0  0  0  0  0  0  0
   16.2442   -2.0401   11.4940 C   0  0  0  0  0  0  0  0  0  0  0  0
   16.0985   -1.1197   10.4631 C   0  0  0  0  0  0  0  0  0  0  0  0
   15.3834    0.0532   10.6786 C   0  0  0  0  0  0  0  0  0  0  0  0
   14.8270    0.3163   11.9328 C   0  0  0  0  0  0  0  0  0  0  0  0
   13.6676   -1.3330   15.0763 C   0  0  0  0  0  0  0  0  0  0  0  0
   12.5376   -1.8066   14.3865 C   0  0  0  0  0  0  0  0  0  0  0  0
   11.7576   -2.8398   14.9024 C   0  0  0  0  0  0  0  0  0  0  0  0
   12.0968   -3.4352   16.1087 C   0  0  0  0  0  0  0  0  0  0  0  0
   13.1630   -2.9421   16.8456 C   0  0  0  0  0  0  0  0  0  0  0  0
   13.9212   -1.8744   16.3520 C   0  0  0  0  0  0  0  0  0  0  0  0
   15.3317   -1.1075   17.6882 I   0  0  0  0  0  0  0  0  0  0  0  0
   14.6254    1.7564   14.3741 H   0  0  0  0  0  0  0  0  0  0  0  0
   13.6732    1.1796   15.5559 H   0  0  0  0  0  0  0  0  0  0  0  0
   15.4892   -0.2015   14.9699 H   0  0  0  0  0  0  0  0  0  0  0  0
   15.8563   -2.4984   13.5486 H   0  0  0  0  0  0  0  0  0  0  0  0
   16.7947   -2.9612   11.3279 H   0  0  0  0  0  0  0  0  0  0  0  0
   16.5426   -1.3133    9.4935 H   0  0  0  0  0  0  0  0  0  0  0  0
   15.2574    0.7698    9.8716 H   0  0  0  0  0  0  0  0  0  0  0  0
   14.2732    1.2418   12.0703 H   0  0  0  0  0  0  0  0  0  0  0  0
   12.2635   -1.3760   13.4249 H   0  0  0  0  0  0  0  0  0  0  0  0
   10.9035   -3.1958   14.3362 H   0  0  0  0  0  0  0  0  0  0  0  0
   11.5234   -4.2774   16.4814 H   0  0  0  0  0  0  0  0  0  0  0  0
   13.3718   -3.3874   17.8159 H   0  0  0  0  0  0  0  0  0  0  0  0
  1  2  1  0
  2  3  1  0
  3  4  2  0
  4  5  1  0
  5  6  2  0
  6  7  1  0
  7  8  2  0
  2  9  1  0
  9 10  2  0
 10 11  1  0
 11 12  2  0
 12 13  1  0
 13 14  2  0
 14 15  1  0
  8  3  1  0
 14  9  1  0
  1 16  1  0
  1 17  1  0
  2 18  1  0
  4 19  1  0
  5 20  1  0
  6 21  1  0
  7 22  1  0
  8 23  1  0
 10 24  1  0
 11 25  1  0
 12 26  1  0
 13 27  1  0
M  END
>  <Energy>  (76) 
39.670280144594685

>  <compound_id>  (76) 
1418

>  <target_id>  (76) 
1

>  <reference_id>  (76) 
106

>  <inspiration_ids>  (76) 
[4, 106]

>  <energy_score>  (76) 
-12.675136293786395

>  <distance_score>  (76) 
0.8449999644059293

>  <path>  (76) 
/opt/xchem-fragalysis-2/maxwin/BulkDock/SCRATCH/505732/C1418-P106/C1418-P106.minimised.mol

>  <scratch_subdir>  (76) 
/opt/xchem-fragalysis-2/maxwin/BulkDock/SCRATCH/505732/C1418-P106

>  <fragmenstein_runtime>  (76) 
1.222637414932251

>  <fragmenstein_outcome>  (76) 
acceptable

>  <fragmenstein_mode>  (76) 
expansion

>  <fragmenstein_error>  (76) 


$$$$
C1420-P4
     RDKit          3D

 33 34  0  0  0  0  0  0  0  0999 V2000
   12.8881    0.9940   13.5434 N   0  0  0  0  0  0  0  0  0  0  0  0
   13.9979    0.3313   14.3016 C   0  0  0  0  0  0  0  0  0  0  0  0
   15.0424   -0.0936   13.2380 C   0  0  0  0  0  0  0  0  0  0  0  0
   15.6958    1.0436   12.4844 C   0  0  0  0  0  0  0  0  0  0  0  0
   16.8710    1.0276   12.1441 O   0  0  0  0  0  0  0  0  0  0  0  0
   14.8614    2.0439   12.1235 O   0  0  0  0  0  0  0  0  0  0  0  0
   13.4667   -0.9743   14.9881 C   0  0  0  0  0  0  0  0  0  0  0  0
   12.2600   -1.6006   14.6004 C   0  0  0  0  0  0  0  0  0  0  0  0
   11.7965   -2.7688   15.2151 C   0  0  0  0  0  0  0  0  0  0  0  0
   12.5274   -3.3588   16.2352 C   0  0  0  0  0  0  0  0  0  0  0  0
   13.7341   -2.7953   16.6215 C   0  0  0  0  0  0  0  0  0  0  0  0
   14.2028   -1.6329   15.9952 C   0  0  0  0  0  0  0  0  0  0  0  0
   14.5708    1.3834   15.3037 C   0  0  0  0  0  0  0  0  0  0  0  0
   13.9000    2.5897   15.6312 C   0  0  0  0  0  0  0  0  0  0  0  0
   14.4294    3.5107   16.5419 C   0  0  0  0  0  0  0  0  0  0  0  0
   15.6557    3.2548   17.1266 C   0  0  0  0  0  0  0  0  0  0  0  0
   16.1747    4.1289   17.9967 F   0  0  0  0  0  0  0  0  0  0  0  0
   16.3631    2.1085   16.8067 C   0  0  0  0  0  0  0  0  0  0  0  0
   15.8344    1.1943   15.8916 C   0  0  0  0  0  0  0  0  0  0  0  0
   12.1630    1.1201   14.2497 H   0  0  0  0  0  0  0  0  0  0  0  0
   12.5082    0.3143   12.8833 H   0  0  0  0  0  0  0  0  0  0  0  0
   14.5909   -0.7582   12.4881 H   0  0  0  0  0  0  0  0  0  0  0  0
   15.8499   -0.6731   13.7040 H   0  0  0  0  0  0  0  0  0  0  0  0
   13.9684    1.9303   12.5339 H   0  0  0  0  0  0  0  0  0  0  0  0
   11.6321   -1.2099   13.8072 H   0  0  0  0  0  0  0  0  0  0  0  0
   10.8675   -3.2230   14.8791 H   0  0  0  0  0  0  0  0  0  0  0  0
   12.1750   -4.2727   16.7085 H   0  0  0  0  0  0  0  0  0  0  0  0
   14.3240   -3.2646   17.4052 H   0  0  0  0  0  0  0  0  0  0  0  0
   15.1636   -1.2625   16.3342 H   0  0  0  0  0  0  0  0  0  0  0  0
   12.9519    2.8574   15.1753 H   0  0  0  0  0  0  0  0  0  0  0  0
   13.8979    4.4257   16.7823 H   0  0  0  0  0  0  0  0  0  0  0  0
   17.3381    1.9402   17.2548 H   0  0  0  0  0  0  0  0  0  0  0  0
   16.4542    0.3356   15.6415 H   0  0  0  0  0  0  0  0  0  0  0  0
  1  2  1  0
  2  3  1  0
  3  4  1  0
  4  5  2  0
  4  6  1  0
  2  7  1  0
  7  8  2  0
  8  9  1  0
  9 10  2  0
 10 11  1  0
 11 12  2  0
  2 13  1  0
 13 14  2  0
 14 15  1  0
 15 16  2  0
 16 17  1  0
 16 18  1  0
 18 19  2  0
 12  7  1  0
 19 13  1  0
  1 20  1  0
  1 21  1  0
  3 22  1  0
  3 23  1  0
  6 24  1  0
  8 25  1  0
  9 26  1  0
 10 27  1  0
 11 28  1  0
 12 29  1  0
 14 30  1  0
 15 31  1  0
 18 32  1  0
 19 33  1  0
M  END
>  <Energy>  (77) 
24.900064109263639

>  <compound_id>  (77) 
1420

>  <target_id>  (77) 
1

>  <reference_id>  (77) 
4

>  <inspiration_ids>  (77) 
[4, 113]

>  <energy_score>  (77) 
-28.84202613916743

>  <distance_score>  (77) 
1.9144107625972093

>  <path>  (77) 
/opt/xchem-fragalysis-2/maxwin/BulkDock/SCRATCH/505732/C1420-P4/C1420-P4.minimised.mol

>  <scratch_subdir>  (77) 
/opt/xchem-fragalysis-2/maxwin/BulkDock/SCRATCH/505732/C1420-P4

>  <fragmenstein_runtime>  (77) 
4.2357892990112305

>  <fragmenstein_outcome>  (77) 
too moved

>  <fragmenstein_mode>  (77) 
expansion

>  <fragmenstein_error>  (77) 


$$$$
C1420-P113
     RDKit          3D

 33 34  0  0  0  0  0  0  0  0999 V2000
   10.7095    1.5480   15.5375 N   0  0  0  0  0  0  0  0  0  0  0  0
   12.0369    1.0743   15.0807 C   0  0  0  0  0  0  0  0  0  0  0  0
   12.0690    1.1843   13.5289 C   0  0  0  0  0  0  0  0  0  0  0  0
   11.9959    2.5934   13.0076 C   0  0  0  0  0  0  0  0  0  0  0  0
   12.9246    3.3749   12.8845 O   0  0  0  0  0  0  0  0  0  0  0  0
   10.7591    2.9621   12.5985 O   0  0  0  0  0  0  0  0  0  0  0  0
   12.1389   -0.4198   15.5272 C   0  0  0  0  0  0  0  0  0  0  0  0
   11.3650   -1.4064   14.8893 C   0  0  0  0  0  0  0  0  0  0  0  0
   11.4226   -2.7473   15.2714 C   0  0  0  0  0  0  0  0  0  0  0  0
   12.2539   -3.1411   16.3117 C   0  0  0  0  0  0  0  0  0  0  0  0
   13.0271   -2.1947   16.9670 C   0  0  0  0  0  0  0  0  0  0  0  0
   12.9476   -0.8478   16.5995 C   0  0  0  0  0  0  0  0  0  0  0  0
   13.1757    1.9359   15.6864 C   0  0  0  0  0  0  0  0  0  0  0  0
   12.9231    3.0171   16.5546 C   0  0  0  0  0  0  0  0  0  0  0  0
   13.9691    3.7133   17.1667 C   0  0  0  0  0  0  0  0  0  0  0  0
   15.2815    3.3457   16.9121 C   0  0  0  0  0  0  0  0  0  0  0  0
   16.2814    3.9890   17.5297 F   0  0  0  0  0  0  0  0  0  0  0  0
   15.5702    2.3112   16.0343 C   0  0  0  0  0  0  0  0  0  0  0  0
   14.5265    1.6221   15.4110 C   0  0  0  0  0  0  0  0  0  0  0  0
   10.6612    1.4292   16.5456 H   0  0  0  0  0  0  0  0  0  0  0  0
    9.9898    0.9399   15.1508 H   0  0  0  0  0  0  0  0  0  0  0  0
   11.2473    0.6314   13.0561 H   0  0  0  0  0  0  0  0  0  0  0  0
   12.9804    0.7333   13.1143 H   0  0  0  0  0  0  0  0  0  0  0  0
   10.9055    3.9074   12.3713 H   0  0  0  0  0  0  0  0  0  0  0  0
   10.6885   -1.1480   14.0809 H   0  0  0  0  0  0  0  0  0  0  0  0
   10.8127   -3.4825   14.7518 H   0  0  0  0  0  0  0  0  0  0  0  0
   12.2928   -4.1825   16.6206 H   0  0  0  0  0  0  0  0  0  0  0  0
   13.6724   -2.4966   17.7888 H   0  0  0  0  0  0  0  0  0  0  0  0
   13.5373   -0.1426   17.1815 H   0  0  0  0  0  0  0  0  0  0  0  0
   11.9073    3.3268   16.7913 H   0  0  0  0  0  0  0  0  0  0  0  0
   13.7593    4.5269   17.8539 H   0  0  0  0  0  0  0  0  0  0  0  0
   16.6040    2.0450   15.8397 H   0  0  0  0  0  0  0  0  0  0  0  0
   14.7773    0.8049   14.7367 H   0  0  0  0  0  0  0  0  0  0  0  0
  1  2  1  0
  2  3  1  0
  3  4  1  0
  4  5  2  0
  4  6  1  0
  2  7  1  0
  7  8  2  0
  8  9  1  0
  9 10  2  0
 10 11  1  0
 11 12  2  0
  2 13  1  0
 13 14  2  0
 14 15  1  0
 15 16  2  0
 16 17  1  0
 16 18  1  0
 18 19  2  0
 12  7  1  0
 19 13  1  0
  1 20  1  0
  1 21  1  0
  3 22  1  0
  3 23  1  0
  6 24  1  0
  8 25  1  0
  9 26  1  0
 10 27  1  0
 11 28  1  0
 12 29  1  0
 14 30  1  0
 15 31  1  0
 18 32  1  0
 19 33  1  0
M  END
>  <Energy>  (78) 
22.040753623541892

>  <compound_id>  (78) 
1420

>  <target_id>  (78) 
1

>  <reference_id>  (78) 
113

>  <inspiration_ids>  (78) 
[4, 113]

>  <energy_score>  (78) 
-31.70133662489016

>  <distance_score>  (78) 
1.923945428178157

>  <path>  (78) 
/opt/xchem-fragalysis-2/maxwin/BulkDock/SCRATCH/505732/C1420-P113/C1420-P113.minimised.mol

>  <scratch_subdir>  (78) 
/opt/xchem-fragalysis-2/maxwin/BulkDock/SCRATCH/505732/C1420-P113

>  <fragmenstein_runtime>  (78) 
3.5459654331207275

>  <fragmenstein_outcome>  (78) 
too moved

>  <fragmenstein_mode>  (78) 
expansion

>  <fragmenstein_error>  (78) 


$$$$
C1421-P4
     RDKit          3D

 41 43  0  0  0  0  0  0  0  0999 V2000
   14.1721    3.9136   10.6394 O   0  0  0  0  0  0  0  0  0  0  0  0
   13.7866    3.2541   11.8431 C   0  0  0  0  0  0  0  0  0  0  0  0
   12.2747    3.0679   11.8575 C   0  0  0  0  0  0  0  0  0  0  0  0
   11.8580    1.8719   12.7099 C   0  0  0  0  0  0  0  0  0  0  0  0
   12.8197    1.6538   13.7713 N   0  0  0  0  0  0  0  0  0  0  0  0
   14.1261    1.1694   13.2978 C   0  0  0  0  0  0  0  0  0  0  0  0
   14.1659   -0.4025   13.1547 C   0  0  0  0  0  0  0  0  0  0  0  0
   15.4259   -0.9548   12.4983 C   0  0  0  0  0  0  0  0  0  0  0  0
   15.3703   -2.2176   11.8972 C   0  0  0  0  0  0  0  0  0  0  0  0
   16.4469   -2.6998   11.1616 C   0  0  0  0  0  0  0  0  0  0  0  0
   17.5839   -1.9275   10.9843 C   0  0  0  0  0  0  0  0  0  0  0  0
   17.6764   -0.6989   11.6204 C   0  0  0  0  0  0  0  0  0  0  0  0
   16.6250   -0.2399   12.4115 C   0  0  0  0  0  0  0  0  0  0  0  0
   13.7415   -1.2310   14.3772 C   0  0  0  0  0  0  0  0  0  0  0  0
   12.4885   -1.8746   14.3765 C   0  0  0  0  0  0  0  0  0  0  0  0
   12.1272   -2.7695   15.3859 C   0  0  0  0  0  0  0  0  0  0  0  0
   13.0140   -3.0356   16.4236 C   0  0  0  0  0  0  0  0  0  0  0  0
   14.2482   -2.3858   16.4601 C   0  0  0  0  0  0  0  0  0  0  0  0
   14.6078   -1.4832   15.4493 C   0  0  0  0  0  0  0  0  0  0  0  0
   14.4871    1.9063   11.9708 C   0  0  0  0  0  0  0  0  0  0  0  0
   14.1205    3.2741    9.9089 H   0  0  0  0  0  0  0  0  0  0  0  0
   14.0889    3.9048   12.6724 H   0  0  0  0  0  0  0  0  0  0  0  0
   11.8912    2.9413   10.8391 H   0  0  0  0  0  0  0  0  0  0  0  0
   11.8132    3.9873   12.2400 H   0  0  0  0  0  0  0  0  0  0  0  0
   10.8616    2.0885   13.1037 H   0  0  0  0  0  0  0  0  0  0  0  0
   11.7469    0.9868   12.0886 H   0  0  0  0  0  0  0  0  0  0  0  0
   12.4653    1.0385   14.5071 H   0  0  0  0  0  0  0  0  0  0  0  0
   14.8540    1.4650   14.0640 H   0  0  0  0  0  0  0  0  0  0  0  0
   13.4033   -0.6046   12.3933 H   0  0  0  0  0  0  0  0  0  0  0  0
   14.4888   -2.8463   12.0010 H   0  0  0  0  0  0  0  0  0  0  0  0
   16.4015   -3.6944   10.7379 H   0  0  0  0  0  0  0  0  0  0  0  0
   18.4146   -2.3086   10.3969 H   0  0  0  0  0  0  0  0  0  0  0  0
   18.5876   -0.1122   11.5340 H   0  0  0  0  0  0  0  0  0  0  0  0
   16.7722    0.6945   12.9445 H   0  0  0  0  0  0  0  0  0  0  0  0
   11.7959   -1.7247   13.5540 H   0  0  0  0  0  0  0  0  0  0  0  0
   11.1750   -3.2905   15.3316 H   0  0  0  0  0  0  0  0  0  0  0  0
   12.7543   -3.7601   17.1919 H   0  0  0  0  0  0  0  0  0  0  0  0
   14.9488   -2.5989   17.2641 H   0  0  0  0  0  0  0  0  0  0  0  0
   15.5948   -1.0259   15.4765 H   0  0  0  0  0  0  0  0  0  0  0  0
   15.5622    2.0960   11.9004 H   0  0  0  0  0  0  0  0  0  0  0  0
   14.2283    1.2896   11.0995 H   0  0  0  0  0  0  0  0  0  0  0  0
  1  2  1  0
  2  3  1  0
  3  4  1  0
  4  5  1  0
  5  6  1  0
  6  7  1  0
  7  8  1  0
  8  9  2  0
  9 10  1  0
 10 11  2  0
 11 12  1  0
 12 13  2  0
  7 14  1  0
 14 15  2  0
 15 16  1  0
 16 17  2  0
 17 18  1  0
 18 19  2  0
  6 20  1  0
 20  2  1  0
 13  8  1  0
 19 14  1  0
  1 21  1  0
  2 22  1  0
  3 23  1  0
  3 24  1  0
  4 25  1  0
  4 26  1  0
  5 27  1  0
  6 28  1  0
  7 29  1  0
  9 30  1  0
 10 31  1  0
 11 32  1  0
 12 33  1  0
 13 34  1  0
 15 35  1  0
 16 36  1  0
 17 37  1  0
 18 38  1  0
 19 39  1  0
 20 40  1  0
 20 41  1  0
M  END
>  <Energy>  (79) 
88.2886736811747

>  <compound_id>  (79) 
1421

>  <target_id>  (79) 
1

>  <reference_id>  (79) 
4

>  <inspiration_ids>  (79) 
[4, 114]

>  <energy_score>  (79) 
-22.800110213637453

>  <distance_score>  (79) 
1.8092748540831185

>  <path>  (79) 
/opt/xchem-fragalysis-2/maxwin/BulkDock/SCRATCH/505732/C1421-P4/C1421-P4.minimised.mol

>  <scratch_subdir>  (79) 
/opt/xchem-fragalysis-2/maxwin/BulkDock/SCRATCH/505732/C1421-P4

>  <fragmenstein_runtime>  (79) 
3.63552188873291

>  <fragmenstein_outcome>  (79) 
too moved

>  <fragmenstein_mode>  (79) 
expansion

>  <fragmenstein_error>  (79) 


$$$$
C1421-P114
     RDKit          3D

 41 43  0  0  0  0  0  0  0  0999 V2000
   10.4575    2.8641   12.6647 O   0  0  0  0  0  0  0  0  0  0  0  0
   11.1885    2.2605   13.7475 C   0  0  0  0  0  0  0  0  0  0  0  0
   10.2698    1.2868   14.4662 C   0  0  0  0  0  0  0  0  0  0  0  0
   10.9973    0.2740   15.3190 C   0  0  0  0  0  0  0  0  0  0  0  0
   12.3791    0.6725   15.5185 N   0  0  0  0  0  0  0  0  0  0  0  0
   13.1553    0.6603   14.2462 C   0  0  0  0  0  0  0  0  0  0  0  0
   13.5051   -0.7848   13.6689 C   0  0  0  0  0  0  0  0  0  0  0  0
   14.6809   -0.8751   12.6740 C   0  0  0  0  0  0  0  0  0  0  0  0
   15.5554   -1.9757   12.6592 C   0  0  0  0  0  0  0  0  0  0  0  0
   16.5420   -2.1273   11.6784 C   0  0  0  0  0  0  0  0  0  0  0  0
   16.6856   -1.1799   10.6763 C   0  0  0  0  0  0  0  0  0  0  0  0
   15.8425   -0.0789   10.6615 C   0  0  0  0  0  0  0  0  0  0  0  0
   14.8533    0.0660   11.6430 C   0  0  0  0  0  0  0  0  0  0  0  0
   13.5246   -1.8165   14.8100 C   0  0  0  0  0  0  0  0  0  0  0  0
   12.4574   -2.7260   14.9246 C   0  0  0  0  0  0  0  0  0  0  0  0
   12.3430   -3.5510   16.0395 C   0  0  0  0  0  0  0  0  0  0  0  0
   13.3093   -3.5118   17.0366 C   0  0  0  0  0  0  0  0  0  0  0  0
   14.3942   -2.6459   16.9192 C   0  0  0  0  0  0  0  0  0  0  0  0
   14.5033   -1.7978   15.8155 C   0  0  0  0  0  0  0  0  0  0  0  0
   12.4196    1.5452   13.2019 C   0  0  0  0  0  0  0  0  0  0  0  0
   11.0284    3.5881   12.3421 H   0  0  0  0  0  0  0  0  0  0  0  0
   11.4882    3.0633   14.4326 H   0  0  0  0  0  0  0  0  0  0  0  0
    9.6710    0.7358   13.7331 H   0  0  0  0  0  0  0  0  0  0  0  0
    9.5800    1.8603   15.0966 H   0  0  0  0  0  0  0  0  0  0  0  0
   10.4915    0.2001   16.2851 H   0  0  0  0  0  0  0  0  0  0  0  0
   10.8993   -0.7107   14.8631 H   0  0  0  0  0  0  0  0  0  0  0  0
   12.8219    0.0481   16.1941 H   0  0  0  0  0  0  0  0  0  0  0  0
   14.1089    1.1505   14.4840 H   0  0  0  0  0  0  0  0  0  0  0  0
   12.6421   -1.0770   13.0563 H   0  0  0  0  0  0  0  0  0  0  0  0
   15.4892   -2.7628   13.4042 H   0  0  0  0  0  0  0  0  0  0  0  0
   17.1934   -2.9969   11.7033 H   0  0  0  0  0  0  0  0  0  0  0  0
   17.4523   -1.2994    9.9170 H   0  0  0  0  0  0  0  0  0  0  0  0
   15.9406    0.6682    9.8780 H   0  0  0  0  0  0  0  0  0  0  0  0
   14.2075    0.9275   11.5415 H   0  0  0  0  0  0  0  0  0  0  0  0
   11.6904   -2.7822   14.1531 H   0  0  0  0  0  0  0  0  0  0  0  0
   11.5101   -4.2412   16.1244 H   0  0  0  0  0  0  0  0  0  0  0  0
   13.2181   -4.1572   17.9068 H   0  0  0  0  0  0  0  0  0  0  0  0
   15.1525   -2.6194   17.6983 H   0  0  0  0  0  0  0  0  0  0  0  0
   15.3396   -1.1039   15.7556 H   0  0  0  0  0  0  0  0  0  0  0  0
   13.1063    2.3092   12.8162 H   0  0  0  0  0  0  0  0  0  0  0  0
   12.1018    0.9560   12.3343 H   0  0  0  0  0  0  0  0  0  0  0  0
  1  2  1  0
  2  3  1  0
  3  4  1  0
  4  5  1  0
  5  6  1  0
  6  7  1  0
  7  8  1  0
  8  9  2  0
  9 10  1  0
 10 11  2  0
 11 12  1  0
 12 13  2  0
  7 14  1  0
 14 15  2  0
 15 16  1  0
 16 17  2  0
 17 18  1  0
 18 19  2  0
  6 20  1  0
 20  2  1  0
 13  8  1  0
 19 14  1  0
  1 21  1  0
  2 22  1  0
  3 23  1  0
  3 24  1  0
  4 25  1  0
  4 26  1  0
  5 27  1  0
  6 28  1  0
  7 29  1  0
  9 30  1  0
 10 31  1  0
 11 32  1  0
 12 33  1  0
 13 34  1  0
 15 35  1  0
 16 36  1  0
 17 37  1  0
 18 38  1  0
 19 39  1  0
 20 40  1  0
 20 41  1  0
M  END
>  <Energy>  (80) 
93.670881086189837

>  <compound_id>  (80) 
1421

>  <target_id>  (80) 
1

>  <reference_id>  (80) 
114

>  <inspiration_ids>  (80) 
[4, 114]

>  <energy_score>  (80) 
-17.41790280862179

>  <distance_score>  (80) 
0.9795675300972576

>  <path>  (80) 
/opt/xchem-fragalysis-2/maxwin/BulkDock/SCRATCH/505732/C1421-P114/C1421-P114.minimised.mol

>  <scratch_subdir>  (80) 
/opt/xchem-fragalysis-2/maxwin/BulkDock/SCRATCH/505732/C1421-P114

>  <fragmenstein_runtime>  (80) 
3.3996317386627197

>  <fragmenstein_outcome>  (80) 
acceptable

>  <fragmenstein_mode>  (80) 
expansion

>  <fragmenstein_error>  (80) 


$$$$
C1422-P4
     RDKit          3D

 29 30  0  0  0  0  0  0  0  0999 V2000
   11.4686   -1.5679   14.2513 N   0  0  0  0  0  0  0  0  0  0  0  0
   12.5147   -2.1080   14.9830 C   0  0  0  0  0  0  0  0  0  0  0  0
   12.2044   -3.1307   15.8822 C   0  0  0  0  0  0  0  0  0  0  0  0
   13.1309   -3.5748   16.8168 C   0  0  0  0  0  0  0  0  0  0  0  0
   14.3958   -3.0071   16.8559 C   0  0  0  0  0  0  0  0  0  0  0  0
   14.7249   -1.9858   15.9643 C   0  0  0  0  0  0  0  0  0  0  0  0
   13.7824   -1.4896   15.0380 C   0  0  0  0  0  0  0  0  0  0  0  0
   14.1417   -0.3211   14.1141 C   0  0  0  0  0  0  0  0  0  0  0  0
   14.8955    0.7308   14.8218 N   0  0  0  0  0  0  0  0  0  0  0  0
   14.8523   -0.6843   12.8118 C   0  0  0  0  0  0  0  0  0  0  0  0
   15.3246   -1.9718   12.5205 C   0  0  0  0  0  0  0  0  0  0  0  0
   15.9959   -2.2397   11.3243 C   0  0  0  0  0  0  0  0  0  0  0  0
   16.2082   -1.2271   10.3952 C   0  0  0  0  0  0  0  0  0  0  0  0
   15.7394    0.0555   10.6554 C   0  0  0  0  0  0  0  0  0  0  0  0
   15.0659    0.3224   11.8499 C   0  0  0  0  0  0  0  0  0  0  0  0
   11.7220   -1.1333   13.3744 H   0  0  0  0  0  0  0  0  0  0  0  0
   10.6447   -2.1464   14.0787 H   0  0  0  0  0  0  0  0  0  0  0  0
   11.2247   -3.5969   15.8532 H   0  0  0  0  0  0  0  0  0  0  0  0
   12.8524   -4.3642   17.5070 H   0  0  0  0  0  0  0  0  0  0  0  0
   15.1310   -3.3577   17.5750 H   0  0  0  0  0  0  0  0  0  0  0  0
   15.7297   -1.5724   16.0050 H   0  0  0  0  0  0  0  0  0  0  0  0
   13.2106    0.1765   13.8219 H   0  0  0  0  0  0  0  0  0  0  0  0
   14.4503    0.8848   15.7226 H   0  0  0  0  0  0  0  0  0  0  0  0
   15.8356    0.3880   14.9998 H   0  0  0  0  0  0  0  0  0  0  0  0
   15.1894   -2.7938   13.2175 H   0  0  0  0  0  0  0  0  0  0  0  0
   16.3595   -3.2443   11.1247 H   0  0  0  0  0  0  0  0  0  0  0  0
   16.7458   -1.4389    9.4764 H   0  0  0  0  0  0  0  0  0  0  0  0
   15.9055    0.8538    9.9377 H   0  0  0  0  0  0  0  0  0  0  0  0
   14.7220    1.3365   12.0479 H   0  0  0  0  0  0  0  0  0  0  0  0
  1  2  1  0
  2  3  2  0
  3  4  1  0
  4  5  2  0
  5  6  1  0
  6  7  2  0
  7  8  1  0
  8  9  1  0
  8 10  1  0
 10 11  2  0
 11 12  1  0
 12 13  2  0
 13 14  1  0
 14 15  2  0
  7  2  1  0
 15 10  1  0
  1 16  1  0
  1 17  1  0
  3 18  1  0
  4 19  1  0
  5 20  1  0
  6 21  1  0
  8 22  1  0
  9 23  1  0
  9 24  1  0
 11 25  1  0
 12 26  1  0
 13 27  1  0
 14 28  1  0
 15 29  1  0
M  END
>  <Energy>  (81) 
36.574736657451631

>  <compound_id>  (81) 
1422

>  <target_id>  (81) 
1

>  <reference_id>  (81) 
4

>  <inspiration_ids>  (81) 
[4, 117]

>  <energy_score>  (81) 
-50.16732630923468

>  <distance_score>  (81) 
0.6942211413913096

>  <path>  (81) 
/opt/xchem-fragalysis-2/maxwin/BulkDock/SCRATCH/505732/C1422-P4/C1422-P4.minimised.mol

>  <scratch_subdir>  (81) 
/opt/xchem-fragalysis-2/maxwin/BulkDock/SCRATCH/505732/C1422-P4

>  <fragmenstein_runtime>  (81) 
1.5841009616851807

>  <fragmenstein_outcome>  (81) 
acceptable

>  <fragmenstein_mode>  (81) 
expansion

>  <fragmenstein_error>  (81) 


$$$$
C1422-P117
     RDKit          3D

 29 30  0  0  0  0  0  0  0  0999 V2000
   11.2795   -1.5566   14.4232 N   0  0  0  0  0  0  0  0  0  0  0  0
   12.3838   -2.1109   15.0631 C   0  0  0  0  0  0  0  0  0  0  0  0
   12.1422   -3.1876   15.9258 C   0  0  0  0  0  0  0  0  0  0  0  0
   13.1252   -3.6731   16.7809 C   0  0  0  0  0  0  0  0  0  0  0  0
   14.3773   -3.0814   16.7904 C   0  0  0  0  0  0  0  0  0  0  0  0
   14.6382   -2.0031   15.9460 C   0  0  0  0  0  0  0  0  0  0  0  0
   13.6476   -1.4829   15.0818 C   0  0  0  0  0  0  0  0  0  0  0  0
   13.9800   -0.2958   14.1720 C   0  0  0  0  0  0  0  0  0  0  0  0
   14.6969    0.7691   14.8978 N   0  0  0  0  0  0  0  0  0  0  0  0
   14.7216   -0.6219   12.8743 C   0  0  0  0  0  0  0  0  0  0  0  0
   15.3740   -1.8401   12.6329 C   0  0  0  0  0  0  0  0  0  0  0  0
   16.0715   -2.0641   11.4420 C   0  0  0  0  0  0  0  0  0  0  0  0
   16.1430   -1.0691   10.4740 C   0  0  0  0  0  0  0  0  0  0  0  0
   15.5050    0.1472   10.6882 C   0  0  0  0  0  0  0  0  0  0  0  0
   14.8004    0.3668   11.8745 C   0  0  0  0  0  0  0  0  0  0  0  0
   11.4613   -1.0324   13.5742 H   0  0  0  0  0  0  0  0  0  0  0  0
   10.5019   -2.1812   14.2075 H   0  0  0  0  0  0  0  0  0  0  0  0
   11.1695   -3.6678   15.9295 H   0  0  0  0  0  0  0  0  0  0  0  0
   12.9053   -4.5045   17.4421 H   0  0  0  0  0  0  0  0  0  0  0  0
   15.1550   -3.4568   17.4501 H   0  0  0  0  0  0  0  0  0  0  0  0
   15.6363   -1.5711   15.9621 H   0  0  0  0  0  0  0  0  0  0  0  0
   13.0365    0.1741   13.8750 H   0  0  0  0  0  0  0  0  0  0  0  0
   14.2589    0.8768   15.8100 H   0  0  0  0  0  0  0  0  0  0  0  0
   15.6519    0.4609   15.0604 H   0  0  0  0  0  0  0  0  0  0  0  0
   15.3684   -2.6398   13.3665 H   0  0  0  0  0  0  0  0  0  0  0  0
   16.5686   -3.0170   11.2809 H   0  0  0  0  0  0  0  0  0  0  0  0
   16.7042   -1.2364    9.5610 H   0  0  0  0  0  0  0  0  0  0  0  0
   15.5622    0.9330    9.9400 H   0  0  0  0  0  0  0  0  0  0  0  0
   14.3262    1.3336   12.0361 H   0  0  0  0  0  0  0  0  0  0  0  0
  1  2  1  0
  2  3  2  0
  3  4  1  0
  4  5  2  0
  5  6  1  0
  6  7  2  0
  7  8  1  0
  8  9  1  0
  8 10  1  0
 10 11  2  0
 11 12  1  0
 12 13  2  0
 13 14  1  0
 14 15  2  0
  7  2  1  0
 15 10  1  0
  1 16  1  0
  1 17  1  0
  3 18  1  0
  4 19  1  0
  5 20  1  0
  6 21  1  0
  8 22  1  0
  9 23  1  0
  9 24  1  0
 11 25  1  0
 12 26  1  0
 13 27  1  0
 14 28  1  0
 15 29  1  0
M  END
>  <Energy>  (82) 
36.963271704871694

>  <compound_id>  (82) 
1422

>  <target_id>  (82) 
1

>  <reference_id>  (82) 
117

>  <inspiration_ids>  (82) 
[4, 117]

>  <energy_score>  (82) 
-49.77879126181378

>  <distance_score>  (82) 
0.6893541203071704

>  <path>  (82) 
/opt/xchem-fragalysis-2/maxwin/BulkDock/SCRATCH/505732/C1422-P117/C1422-P117.minimised.mol

>  <scratch_subdir>  (82) 
/opt/xchem-fragalysis-2/maxwin/BulkDock/SCRATCH/505732/C1422-P117

>  <fragmenstein_runtime>  (82) 
1.4997847080230713

>  <fragmenstein_outcome>  (82) 
acceptable

>  <fragmenstein_mode>  (82) 
expansion

>  <fragmenstein_error>  (82) 


$$$$
C1424-P4
     RDKit          3D

 56 60  0  0  0  0  0  0  0  0999 V2000
   15.1175    4.3694   10.9756 C   0  0  0  0  0  0  0  0  0  0  0  0
   15.5160    3.8676   12.2861 N   0  0  0  0  0  0  0  0  0  0  0  0
   16.4159    2.7310   12.1089 N   0  0  0  0  0  0  0  0  0  0  0  0
   15.6211    1.5138   12.2746 C   0  0  0  0  0  0  0  0  0  0  0  0
   15.4774    0.8113   10.8905 C   0  0  0  0  0  0  0  0  0  0  0  0
   15.3380   -0.7114   10.9811 C   0  0  0  0  0  0  0  0  0  0  0  0
   14.6224   -1.1186   12.2622 C   0  0  0  0  0  0  0  0  0  0  0  0
   15.4860   -0.7755   13.4823 C   0  0  0  0  0  0  0  0  0  0  0  0
   14.7645   -0.6584   14.8468 C   0  0  0  0  0  0  0  0  0  0  0  0
   14.0011    0.5712   15.0261 N   0  0  0  0  0  0  0  0  0  0  0  0
   13.9325   -1.8178   15.3247 C   0  0  0  0  0  0  0  0  0  0  0  0
   12.7004   -2.1542   14.7388 C   0  0  0  0  0  0  0  0  0  0  0  0
   11.9047   -3.1452   15.2997 C   0  0  0  0  0  0  0  0  0  0  0  0
   12.3356   -3.8067   16.4454 C   0  0  0  0  0  0  0  0  0  0  0  0
   13.5366   -3.4631   17.0531 C   0  0  0  0  0  0  0  0  0  0  0  0
   14.3399   -2.4853   16.4885 C   0  0  0  0  0  0  0  0  0  0  0  0
   16.3235    0.5068   13.2239 C   0  0  0  0  0  0  0  0  0  0  0  0
   14.3207    1.9559   12.7882 N   0  0  0  0  0  0  0  0  0  0  0  0
   14.3653    3.3805   13.0189 C   0  0  0  0  0  0  0  0  0  0  0  0
   14.5382    3.7794   14.7965 S   0  0  0  0  0  0  0  0  0  0  0  0
   14.2659    5.4927   14.7485 C   0  0  0  0  0  0  0  0  0  0  0  0
   13.0223    5.9923   14.9067 C   0  0  0  0  0  0  0  0  0  0  0  0
   12.8135    7.4327   14.8713 C   0  0  0  0  0  0  0  0  0  0  0  0
   13.8393    8.2864   14.6957 C   0  0  0  0  0  0  0  0  0  0  0  0
   15.1556    7.7758   14.5421 C   0  0  0  0  0  0  0  0  0  0  0  0
   16.3186    8.3658   14.3730 N   0  0  0  0  0  0  0  0  0  0  0  0
   17.2789    7.3843   14.2902 N   0  0  0  0  0  0  0  0  0  0  0  0
   16.6762    6.2219   14.4076 C   0  0  0  0  0  0  0  0  0  0  0  0
   15.3265    6.3962   14.5714 N   0  0  0  0  0  0  0  0  0  0  0  0
   15.9970    4.6960   10.4083 H   0  0  0  0  0  0  0  0  0  0  0  0
   14.5775    3.6337   10.3689 H   0  0  0  0  0  0  0  0  0  0  0  0
   14.4769    5.2520   11.0871 H   0  0  0  0  0  0  0  0  0  0  0  0
   17.1304    2.7577   12.8385 H   0  0  0  0  0  0  0  0  0  0  0  0
   14.6149    1.2237   10.3510 H   0  0  0  0  0  0  0  0  0  0  0  0
   16.3473    1.0275   10.2553 H   0  0  0  0  0  0  0  0  0  0  0  0
   14.8246   -1.0999   10.0993 H   0  0  0  0  0  0  0  0  0  0  0  0
   16.3350   -1.1712   10.9613 H   0  0  0  0  0  0  0  0  0  0  0  0
   14.4289   -2.1974   12.2453 H   0  0  0  0  0  0  0  0  0  0  0  0
   13.6513   -0.6192   12.3098 H   0  0  0  0  0  0  0  0  0  0  0  0
   16.2095   -1.5975   13.5938 H   0  0  0  0  0  0  0  0  0  0  0  0
   15.5941   -0.5575   15.5628 H   0  0  0  0  0  0  0  0  0  0  0  0
   13.0135    0.4013   14.8146 H   0  0  0  0  0  0  0  0  0  0  0  0
   14.0154    0.8201   16.0144 H   0  0  0  0  0  0  0  0  0  0  0  0
   12.3367   -1.6439   13.8509 H   0  0  0  0  0  0  0  0  0  0  0  0
   10.9642   -3.4177   14.8293 H   0  0  0  0  0  0  0  0  0  0  0  0
   11.7415   -4.6161   16.8588 H   0  0  0  0  0  0  0  0  0  0  0  0
   13.8417   -3.9542   17.9706 H   0  0  0  0  0  0  0  0  0  0  0  0
   15.2761   -2.2301   16.9805 H   0  0  0  0  0  0  0  0  0  0  0  0
   16.5985    0.9889   14.1718 H   0  0  0  0  0  0  0  0  0  0  0  0
   17.2826    0.2094   12.7744 H   0  0  0  0  0  0  0  0  0  0  0  0
   14.2001    1.5482   13.7216 H   0  0  0  0  0  0  0  0  0  0  0  0
   13.4200    3.8255   12.6868 H   0  0  0  0  0  0  0  0  0  0  0  0
   12.1540    5.3601   15.0660 H   0  0  0  0  0  0  0  0  0  0  0  0
   11.8000    7.8039   14.9951 H   0  0  0  0  0  0  0  0  0  0  0  0
   13.6924    9.3606   14.6716 H   0  0  0  0  0  0  0  0  0  0  0  0
   17.1547    5.2545   14.3782 H   0  0  0  0  0  0  0  0  0  0  0  0
  1  2  1  0
  2  3  1  0
  3  4  1  0
  4  5  1  0
  5  6  1  0
  6  7  1  0
  7  8  1  0
  8  9  1  0
  9 10  1  0
  9 11  1  0
 11 12  2  0
 12 13  1  0
 13 14  2  0
 14 15  1  0
 15 16  2  0
  8 17  1  0
  4 18  1  0
 18 19  1  0
 19 20  1  0
 20 21  1  0
 21 22  2  0
 22 23  1  0
 23 24  2  0
 24 25  1  0
 25 26  2  0
 26 27  1  0
 27 28  2  0
 28 29  1  0
 19  2  1  0
 29 21  1  0
 17  4  1  0
 29 25  1  0
 16 11  1  0
  1 30  1  0
  1 31  1  0
  1 32  1  0
  3 33  1  0
  5 34  1  0
  5 35  1  0
  6 36  1  0
  6 37  1  0
  7 38  1  0
  7 39  1  0
  8 40  1  0
  9 41  1  0
 10 42  1  0
 10 43  1  0
 12 44  1  0
 13 45  1  0
 14 46  1  0
 15 47  1  0
 16 48  1  0
 17 49  1  0
 17 50  1  0
 18 51  1  0
 19 52  1  0
 22 53  1  0
 23 54  1  0
 24 55  1  0
 28 56  1  0
M  END
>  <Energy>  (83) 
24.506191572996833

>  <compound_id>  (83) 
1424

>  <target_id>  (83) 
1

>  <reference_id>  (83) 
4

>  <inspiration_ids>  (83) 
[4, 120]

>  <energy_score>  (83) 
-67.85933713283615

>  <distance_score>  (83) 
1.7072123667592485

>  <path>  (83) 
/opt/xchem-fragalysis-2/maxwin/BulkDock/SCRATCH/505732/C1424-P4/C1424-P4.minimised.mol

>  <scratch_subdir>  (83) 
/opt/xchem-fragalysis-2/maxwin/BulkDock/SCRATCH/505732/C1424-P4

>  <fragmenstein_runtime>  (83) 
5.618854999542236

>  <fragmenstein_outcome>  (83) 
too moved

>  <fragmenstein_mode>  (83) 
expansion

>  <fragmenstein_error>  (83) 


$$$$
C1424-P120
     RDKit          3D

 56 60  0  0  0  0  0  0  0  0999 V2000
   15.2424    4.8971   12.0008 C   0  0  0  0  0  0  0  0  0  0  0  0
   15.0721    3.5883   12.6218 N   0  0  0  0  0  0  0  0  0  0  0  0
   15.9628    2.6653   11.9315 N   0  0  0  0  0  0  0  0  0  0  0  0
   15.3637    1.3502   12.1179 C   0  0  0  0  0  0  0  0  0  0  0  0
   15.4885    0.4989   10.8311 C   0  0  0  0  0  0  0  0  0  0  0  0
   15.3551   -1.0065   11.0972 C   0  0  0  0  0  0  0  0  0  0  0  0
   14.6502   -1.3133   12.4203 C   0  0  0  0  0  0  0  0  0  0  0  0
   15.4115   -0.7241   13.6235 C   0  0  0  0  0  0  0  0  0  0  0  0
   14.6208   -0.5014   14.9457 C   0  0  0  0  0  0  0  0  0  0  0  0
   13.8469    0.7398   15.0249 N   0  0  0  0  0  0  0  0  0  0  0  0
   13.7641   -1.6533   15.3992 C   0  0  0  0  0  0  0  0  0  0  0  0
   12.5103   -1.9197   14.8262 C   0  0  0  0  0  0  0  0  0  0  0  0
   11.7282   -2.9606   15.3069 C   0  0  0  0  0  0  0  0  0  0  0  0
   12.1852   -3.7220   16.3773 C   0  0  0  0  0  0  0  0  0  0  0  0
   13.3999   -3.4354   16.9884 C   0  0  0  0  0  0  0  0  0  0  0  0
   14.1976   -2.4191   16.4887 C   0  0  0  0  0  0  0  0  0  0  0  0
   16.1202    0.5816   13.2276 C   0  0  0  0  0  0  0  0  0  0  0  0
   13.9482    1.6088   12.4105 N   0  0  0  0  0  0  0  0  0  0  0  0
   13.7443    3.0428   12.3726 C   0  0  0  0  0  0  0  0  0  0  0  0
   12.4957    3.4964   13.6117 S   0  0  0  0  0  0  0  0  0  0  0  0
   11.9879    5.0641   13.0799 C   0  0  0  0  0  0  0  0  0  0  0  0
   11.3619    5.2424   11.8977 C   0  0  0  0  0  0  0  0  0  0  0  0
   10.9529    6.5794   11.4913 C   0  0  0  0  0  0  0  0  0  0  0  0
   11.1708    7.6502   12.2769 C   0  0  0  0  0  0  0  0  0  0  0  0
   11.8137    7.4769   13.5307 C   0  0  0  0  0  0  0  0  0  0  0  0
   12.1526    8.3251   14.4764 N   0  0  0  0  0  0  0  0  0  0  0  0
   12.7567    7.6103   15.4848 N   0  0  0  0  0  0  0  0  0  0  0  0
   12.7693    6.3449   15.1289 C   0  0  0  0  0  0  0  0  0  0  0  0
   12.1942    6.1902   13.8938 N   0  0  0  0  0  0  0  0  0  0  0  0
   14.9908    4.9033   10.9330 H   0  0  0  0  0  0  0  0  0  0  0  0
   14.6401    5.6580   12.5022 H   0  0  0  0  0  0  0  0  0  0  0  0
   16.2827    5.2315   12.0996 H   0  0  0  0  0  0  0  0  0  0  0  0
   16.9003    2.6893   12.3355 H   0  0  0  0  0  0  0  0  0  0  0  0
   14.7402    0.8179   10.0943 H   0  0  0  0  0  0  0  0  0  0  0  0
   16.4601    0.6726   10.3482 H   0  0  0  0  0  0  0  0  0  0  0  0
   14.8355   -1.4884   10.2649 H   0  0  0  0  0  0  0  0  0  0  0  0
   16.3572   -1.4546   11.1217 H   0  0  0  0  0  0  0  0  0  0  0  0
   14.5688   -2.3998   12.5383 H   0  0  0  0  0  0  0  0  0  0  0  0
   13.6290   -0.9329   12.3759 H   0  0  0  0  0  0  0  0  0  0  0  0
   16.2032   -1.4486   13.8680 H   0  0  0  0  0  0  0  0  0  0  0  0
   15.3960   -0.3706   15.7159 H   0  0  0  0  0  0  0  0  0  0  0  0
   14.4719    1.5106   15.2725 H   0  0  0  0  0  0  0  0  0  0  0  0
   13.2079    0.6753   15.8202 H   0  0  0  0  0  0  0  0  0  0  0  0
   12.1308   -1.3126   14.0063 H   0  0  0  0  0  0  0  0  0  0  0  0
   10.7730   -3.1804   14.8383 H   0  0  0  0  0  0  0  0  0  0  0  0
   11.5898   -4.5513   16.7378 H   0  0  0  0  0  0  0  0  0  0  0  0
   13.7220   -4.0008   17.8554 H   0  0  0  0  0  0  0  0  0  0  0  0
   15.1511   -2.2150   16.9703 H   0  0  0  0  0  0  0  0  0  0  0  0
   17.1281    0.3327   12.8617 H   0  0  0  0  0  0  0  0  0  0  0  0
   16.3014    1.2158   14.1052 H   0  0  0  0  0  0  0  0  0  0  0  0
   13.7602    1.3340   13.3806 H   0  0  0  0  0  0  0  0  0  0  0  0
   13.3765    3.2855   11.3674 H   0  0  0  0  0  0  0  0  0  0  0  0
   11.1427    4.4214   11.2218 H   0  0  0  0  0  0  0  0  0  0  0  0
   10.4631    6.6926   10.5284 H   0  0  0  0  0  0  0  0  0  0  0  0
   10.8686    8.6487   11.9806 H   0  0  0  0  0  0  0  0  0  0  0  0
   13.1721    5.5274   15.7091 H   0  0  0  0  0  0  0  0  0  0  0  0
  1  2  1  0
  2  3  1  0
  3  4  1  0
  4  5  1  0
  5  6  1  0
  6  7  1  0
  7  8  1  0
  8  9  1  0
  9 10  1  0
  9 11  1  0
 11 12  2  0
 12 13  1  0
 13 14  2  0
 14 15  1  0
 15 16  2  0
  8 17  1  0
  4 18  1  0
 18 19  1  0
 19 20  1  0
 20 21  1  0
 21 22  2  0
 22 23  1  0
 23 24  2  0
 24 25  1  0
 25 26  2  0
 26 27  1  0
 27 28  2  0
 28 29  1  0
 19  2  1  0
 29 21  1  0
 17  4  1  0
 29 25  1  0
 16 11  1  0
  1 30  1  0
  1 31  1  0
  1 32  1  0
  3 33  1  0
  5 34  1  0
  5 35  1  0
  6 36  1  0
  6 37  1  0
  7 38  1  0
  7 39  1  0
  8 40  1  0
  9 41  1  0
 10 42  1  0
 10 43  1  0
 12 44  1  0
 13 45  1  0
 14 46  1  0
 15 47  1  0
 16 48  1  0
 17 49  1  0
 17 50  1  0
 18 51  1  0
 19 52  1  0
 22 53  1  0
 23 54  1  0
 24 55  1  0
 28 56  1  0
M  END
>  <Energy>  (84) 
24.435012185736138

>  <compound_id>  (84) 
1424

>  <target_id>  (84) 
1

>  <reference_id>  (84) 
120

>  <inspiration_ids>  (84) 
[4, 120]

>  <energy_score>  (84) 
-67.93051652009635

>  <distance_score>  (84) 
1.6959668865651139

>  <path>  (84) 
/opt/xchem-fragalysis-2/maxwin/BulkDock/SCRATCH/505732/C1424-P120/C1424-P120.minimised.mol

>  <scratch_subdir>  (84) 
/opt/xchem-fragalysis-2/maxwin/BulkDock/SCRATCH/505732/C1424-P120

>  <fragmenstein_runtime>  (84) 
5.607976198196411

>  <fragmenstein_outcome>  (84) 
too moved

>  <fragmenstein_mode>  (84) 
expansion

>  <fragmenstein_error>  (84) 


$$$$
C1426-P4
     RDKit          3D

 38 40  0  0  0  0  0  0  0  0999 V2000
   17.8483   -4.2343   16.9600 C   0  0  0  0  0  0  0  0  0  0  0  0
   17.3908   -2.9147   16.4792 C   0  0  0  0  0  0  0  0  0  0  0  0
   17.1961   -2.6595   15.2344 N   0  0  0  0  0  0  0  0  0  0  0  0
   16.7029   -1.3755   15.1509 N   0  0  0  0  0  0  0  0  0  0  0  0
   16.2752   -1.0241   13.8328 C   0  0  0  0  0  0  0  0  0  0  0  0
   17.0996   -1.4724   12.7655 C   0  0  0  0  0  0  0  0  0  0  0  0
   16.8359   -1.1920   11.4205 C   0  0  0  0  0  0  0  0  0  0  0  0
   15.7240   -0.4433   11.0921 C   0  0  0  0  0  0  0  0  0  0  0  0
   14.8556   -0.0491   12.1064 C   0  0  0  0  0  0  0  0  0  0  0  0
   15.0805   -0.3749   13.4764 C   0  0  0  0  0  0  0  0  0  0  0  0
   13.9022   -0.1388   14.3997 C   0  0  0  0  0  0  0  0  0  0  0  0
   14.1139    0.9946   15.2895 N   0  0  0  0  0  0  0  0  0  0  0  0
   13.3373   -1.4047   15.0418 C   0  0  0  0  0  0  0  0  0  0  0  0
   12.2772   -2.0728   14.4229 C   0  0  0  0  0  0  0  0  0  0  0  0
   11.7014   -3.1994   15.0080 C   0  0  0  0  0  0  0  0  0  0  0  0
   12.2037   -3.7219   16.1939 C   0  0  0  0  0  0  0  0  0  0  0  0
   13.2701   -3.1063   16.8124 C   0  0  0  0  0  0  0  0  0  0  0  0
   13.7974   -1.9478   16.2492 C   0  0  0  0  0  0  0  0  0  0  0  0
   16.6306   -0.7357   16.4102 C   0  0  0  0  0  0  0  0  0  0  0  0
   16.2370    0.3615   16.7778 O   0  0  0  0  0  0  0  0  0  0  0  0
   17.1337   -1.7664   17.3779 C   0  0  0  0  0  0  0  0  0  0  0  0
   17.9232   -4.9438   16.1317 H   0  0  0  0  0  0  0  0  0  0  0  0
   18.8285   -4.1285   17.4323 H   0  0  0  0  0  0  0  0  0  0  0  0
   17.1378   -4.6188   17.6964 H   0  0  0  0  0  0  0  0  0  0  0  0
   18.0000   -2.0438   12.9908 H   0  0  0  0  0  0  0  0  0  0  0  0
   17.5109   -1.5530   10.6499 H   0  0  0  0  0  0  0  0  0  0  0  0
   15.5072   -0.2035   10.0559 H   0  0  0  0  0  0  0  0  0  0  0  0
   13.9475    0.4779   11.8164 H   0  0  0  0  0  0  0  0  0  0  0  0
   13.0745    0.2221   13.7728 H   0  0  0  0  0  0  0  0  0  0  0  0
   14.8965    0.8103   15.9213 H   0  0  0  0  0  0  0  0  0  0  0  0
   14.4206    1.7921   14.7371 H   0  0  0  0  0  0  0  0  0  0  0  0
   11.8665   -1.7077   13.4871 H   0  0  0  0  0  0  0  0  0  0  0  0
   10.8721   -3.6905   14.5175 H   0  0  0  0  0  0  0  0  0  0  0  0
   11.7664   -4.6146   16.6311 H   0  0  0  0  0  0  0  0  0  0  0  0
   13.6462   -3.4863   17.7567 H   0  0  0  0  0  0  0  0  0  0  0  0
   14.4959   -1.3999   16.8546 H   0  0  0  0  0  0  0  0  0  0  0  0
   16.3777   -2.0207   18.1225 H   0  0  0  0  0  0  0  0  0  0  0  0
   18.0622   -1.4340   17.8466 H   0  0  0  0  0  0  0  0  0  0  0  0
  1  2  1  0
  2  3  2  0
  3  4  1  0
  4  5  1  0
  5  6  2  0
  6  7  1  0
  7  8  2  0
  8  9  1  0
  9 10  2  0
 10 11  1  0
 11 12  1  0
 11 13  1  0
 13 14  2  0
 14 15  1  0
 15 16  2  0
 16 17  1  0
 17 18  2  0
  4 19  1  0
 19 20  2  0
 19 21  1  0
 21  2  1  0
 10  5  1  0
 18 13  1  0
  1 22  1  0
  1 23  1  0
  1 24  1  0
  6 25  1  0
  7 26  1  0
  8 27  1  0
  9 28  1  0
 11 29  1  0
 12 30  1  0
 12 31  1  0
 14 32  1  0
 15 33  1  0
 16 34  1  0
 17 35  1  0
 18 36  1  0
 21 37  1  0
 21 38  1  0
M  END
>  <Energy>  (85) 
85.506792281214302

>  <compound_id>  (85) 
1426

>  <target_id>  (85) 
1

>  <reference_id>  (85) 
4

>  <inspiration_ids>  (85) 
[4, 124]

>  <energy_score>  (85) 
-34.36923105079072

>  <distance_score>  (85) 
1.7272200775646396

>  <path>  (85) 
/opt/xchem-fragalysis-2/maxwin/BulkDock/SCRATCH/505732/C1426-P4/C1426-P4.minimised.mol

>  <scratch_subdir>  (85) 
/opt/xchem-fragalysis-2/maxwin/BulkDock/SCRATCH/505732/C1426-P4

>  <fragmenstein_runtime>  (85) 
17.502265214920044

>  <fragmenstein_outcome>  (85) 
too moved

>  <fragmenstein_mode>  (85) 
expansion

>  <fragmenstein_error>  (85) 


$$$$
C1426-P124
     RDKit          3D

 38 40  0  0  0  0  0  0  0  0999 V2000
   17.9092   -4.1423   17.0008 C   0  0  0  0  0  0  0  0  0  0  0  0
   17.4497   -2.8266   16.5104 C   0  0  0  0  0  0  0  0  0  0  0  0
   17.2603   -2.5802   15.2628 N   0  0  0  0  0  0  0  0  0  0  0  0
   16.7499   -1.3004   15.1671 N   0  0  0  0  0  0  0  0  0  0  0  0
   16.3087   -0.9808   13.8414 C   0  0  0  0  0  0  0  0  0  0  0  0
   17.1560   -1.4190   12.7862 C   0  0  0  0  0  0  0  0  0  0  0  0
   16.8880   -1.1883   11.4321 C   0  0  0  0  0  0  0  0  0  0  0  0
   15.7446   -0.5036   11.0771 C   0  0  0  0  0  0  0  0  0  0  0  0
   14.8587   -0.1163   12.0778 C   0  0  0  0  0  0  0  0  0  0  0  0
   15.0920   -0.3850   13.4610 C   0  0  0  0  0  0  0  0  0  0  0  0
   13.8977   -0.1465   14.3628 C   0  0  0  0  0  0  0  0  0  0  0  0
   14.1050    0.9545   15.2869 N   0  0  0  0  0  0  0  0  0  0  0  0
   13.2843   -1.4114   14.9619 C   0  0  0  0  0  0  0  0  0  0  0  0
   12.0791   -1.8996   14.4483 C   0  0  0  0  0  0  0  0  0  0  0  0
   11.4542   -3.0078   15.0188 C   0  0  0  0  0  0  0  0  0  0  0  0
   12.0399   -3.6884   16.0797 C   0  0  0  0  0  0  0  0  0  0  0  0
   13.2369   -3.2459   16.5974 C   0  0  0  0  0  0  0  0  0  0  0  0
   13.8241   -2.1095   16.0504 C   0  0  0  0  0  0  0  0  0  0  0  0
   16.6471   -0.6621   16.4285 C   0  0  0  0  0  0  0  0  0  0  0  0
   16.2184    0.4208   16.7958 O   0  0  0  0  0  0  0  0  0  0  0  0
   17.1672   -1.6790   17.4022 C   0  0  0  0  0  0  0  0  0  0  0  0
   18.0564   -4.8362   16.1689 H   0  0  0  0  0  0  0  0  0  0  0  0
   18.8532   -4.0204   17.5382 H   0  0  0  0  0  0  0  0  0  0  0  0
   17.1613   -4.5558   17.6827 H   0  0  0  0  0  0  0  0  0  0  0  0
   18.0797   -1.9443   13.0293 H   0  0  0  0  0  0  0  0  0  0  0  0
   17.5836   -1.5393   10.6761 H   0  0  0  0  0  0  0  0  0  0  0  0
   15.5162   -0.3074   10.0342 H   0  0  0  0  0  0  0  0  0  0  0  0
   13.9297    0.3619   11.7676 H   0  0  0  0  0  0  0  0  0  0  0  0
   13.0984    0.2534   13.7235 H   0  0  0  0  0  0  0  0  0  0  0  0
   14.9018    0.7851   15.8995 H   0  0  0  0  0  0  0  0  0  0  0  0
   14.3472    1.7897   14.7605 H   0  0  0  0  0  0  0  0  0  0  0  0
   11.5889   -1.3920   13.6214 H   0  0  0  0  0  0  0  0  0  0  0  0
   10.5055   -3.3429   14.6229 H   0  0  0  0  0  0  0  0  0  0  0  0
   11.5656   -4.5683   16.4987 H   0  0  0  0  0  0  0  0  0  0  0  0
   13.6862   -3.7479   17.4474 H   0  0  0  0  0  0  0  0  0  0  0  0
   14.6635   -1.7173   16.5803 H   0  0  0  0  0  0  0  0  0  0  0  0
   16.4110   -1.9432   18.1436 H   0  0  0  0  0  0  0  0  0  0  0  0
   18.0865   -1.3267   17.8743 H   0  0  0  0  0  0  0  0  0  0  0  0
  1  2  1  0
  2  3  2  0
  3  4  1  0
  4  5  1  0
  5  6  2  0
  6  7  1  0
  7  8  2  0
  8  9  1  0
  9 10  2  0
 10 11  1  0
 11 12  1  0
 11 13  1  0
 13 14  2  0
 14 15  1  0
 15 16  2  0
 16 17  1  0
 17 18  2  0
  4 19  1  0
 19 20  2  0
 19 21  1  0
 21  2  1  0
 10  5  1  0
 18 13  1  0
  1 22  1  0
  1 23  1  0
  1 24  1  0
  6 25  1  0
  7 26  1  0
  8 27  1  0
  9 28  1  0
 11 29  1  0
 12 30  1  0
 12 31  1  0
 14 32  1  0
 15 33  1  0
 16 34  1  0
 17 35  1  0
 18 36  1  0
 21 37  1  0
 21 38  1  0
M  END
>  <Energy>  (86) 
88.859746441093918

>  <compound_id>  (86) 
1426

>  <target_id>  (86) 
1

>  <reference_id>  (86) 
124

>  <inspiration_ids>  (86) 
[4, 124]

>  <energy_score>  (86) 
-31.016276890910547

>  <distance_score>  (86) 
1.7217680922667107

>  <path>  (86) 
/opt/xchem-fragalysis-2/maxwin/BulkDock/SCRATCH/505732/C1426-P124/C1426-P124.minimised.mol

>  <scratch_subdir>  (86) 
/opt/xchem-fragalysis-2/maxwin/BulkDock/SCRATCH/505732/C1426-P124

>  <fragmenstein_runtime>  (86) 
16.972525596618652

>  <fragmenstein_outcome>  (86) 
too moved

>  <fragmenstein_mode>  (86) 
expansion

>  <fragmenstein_error>  (86) 


$$$$
C1429-P5
     RDKit          3D

 47 49  0  0  0  0  0  0  0  0999 V2000
   14.2259    2.8881   12.0325 C   0  0  0  0  0  0  0  0  0  0  0  0
   13.3041    1.8144   11.5186 C   0  0  0  0  0  0  0  0  0  0  0  0
   12.6480    1.9623   10.4963 O   0  0  0  0  0  0  0  0  0  0  0  0
   13.3049    0.6762   12.2832 N   0  0  0  0  0  0  0  0  0  0  0  0
   14.1985   -0.4424   12.1139 C   0  0  0  0  0  0  0  0  0  0  0  0
   14.4448   -0.8588   13.5644 C   0  0  0  0  0  0  0  0  0  0  0  0
   15.6160   -0.0007   13.9952 C   0  0  0  0  0  0  0  0  0  0  0  0
   16.0001   -0.3212   15.3035 O   0  0  0  0  0  0  0  0  0  0  0  0
   13.0339   -0.6370   14.2738 C   0  0  0  0  0  0  0  0  0  0  0  0
   12.2174   -1.9789   14.1590 C   0  0  0  0  0  0  0  0  0  0  0  0
   12.1628   -2.8437   15.4311 C   0  0  0  0  0  0  0  0  0  0  0  0
   13.4043   -2.7063   16.2909 C   0  0  0  0  0  0  0  0  0  0  0  0
   13.5872   -1.2629   16.7388 C   0  0  0  0  0  0  0  0  0  0  0  0
   12.9293   -0.2568   15.7817 C   0  0  0  0  0  0  0  0  0  0  0  0
   13.1698    1.1312   16.1354 N   0  0  0  0  0  0  0  0  0  0  0  0
   14.4212    1.6244   16.3860 N   0  0  0  0  0  0  0  0  0  0  0  0
   14.2640    2.8903   16.6274 C   0  0  0  0  0  0  0  0  0  0  0  0
   15.3847    3.8125   16.9438 C   0  0  0  0  0  0  0  0  0  0  0  0
   12.8494    3.3698   16.5422 C   0  0  0  0  0  0  0  0  0  0  0  0
   12.1461    2.0919   16.2180 C   0  0  0  0  0  0  0  0  0  0  0  0
   10.9485    1.9378   16.0362 O   0  0  0  0  0  0  0  0  0  0  0  0
   12.3846    0.4637   13.3754 C   0  0  0  0  0  0  0  0  0  0  0  0
   13.9333    3.8516   11.6057 H   0  0  0  0  0  0  0  0  0  0  0  0
   15.2537    2.6594   11.7386 H   0  0  0  0  0  0  0  0  0  0  0  0
   14.1599    2.9662   13.1213 H   0  0  0  0  0  0  0  0  0  0  0  0
   13.7063   -1.2430   11.5686 H   0  0  0  0  0  0  0  0  0  0  0  0
   15.0886   -0.1501   11.5471 H   0  0  0  0  0  0  0  0  0  0  0  0
   14.7522   -1.9090   13.6286 H   0  0  0  0  0  0  0  0  0  0  0  0
   15.4138    1.0723   13.9336 H   0  0  0  0  0  0  0  0  0  0  0  0
   16.4853   -0.1950   13.3564 H   0  0  0  0  0  0  0  0  0  0  0  0
   15.6259    0.3836   15.8758 H   0  0  0  0  0  0  0  0  0  0  0  0
   11.1812   -1.7499   13.9167 H   0  0  0  0  0  0  0  0  0  0  0  0
   12.6007   -2.5871   13.3367 H   0  0  0  0  0  0  0  0  0  0  0  0
   11.9907   -3.8846   15.1643 H   0  0  0  0  0  0  0  0  0  0  0  0
   11.2852   -2.5525   16.0203 H   0  0  0  0  0  0  0  0  0  0  0  0
   13.3358   -3.3619   17.1665 H   0  0  0  0  0  0  0  0  0  0  0  0
   14.2852   -3.0300   15.7260 H   0  0  0  0  0  0  0  0  0  0  0  0
   13.1268   -1.1290   17.7144 H   0  0  0  0  0  0  0  0  0  0  0  0
   14.6416   -1.0781   16.9395 H   0  0  0  0  0  0  0  0  0  0  0  0
   11.8537   -0.3502   15.9999 H   0  0  0  0  0  0  0  0  0  0  0  0
   16.3304    3.2656   16.9829 H   0  0  0  0  0  0  0  0  0  0  0  0
   15.4470    4.5842   16.1723 H   0  0  0  0  0  0  0  0  0  0  0  0
   15.2026    4.2866   17.9116 H   0  0  0  0  0  0  0  0  0  0  0  0
   12.7400    4.0911   15.7303 H   0  0  0  0  0  0  0  0  0  0  0  0
   12.5247    3.7762   17.4991 H   0  0  0  0  0  0  0  0  0  0  0  0
   11.4131    0.1713   12.9677 H   0  0  0  0  0  0  0  0  0  0  0  0
   12.2383    1.4331   13.8457 H   0  0  0  0  0  0  0  0  0  0  0  0
  1  2  1  0
  2  3  2  0
  2  4  1  0
  4  5  1  0
  5  6  1  0
  6  7  1  0
  7  8  1  0
  6  9  1  0
  9 10  1  0
 10 11  1  0
 11 12  1  0
 12 13  1  0
 13 14  1  0
 14 15  1  0
 15 16  1  0
 16 17  2  0
 17 18  1  0
 17 19  1  0
 19 20  1  0
 20 21  2  0
  9 22  1  0
 22  4  1  0
 14  9  1  0
 20 15  1  0
  1 23  1  0
  1 24  1  0
  1 25  1  0
  5 26  1  0
  5 27  1  0
  6 28  1  0
  7 29  1  0
  7 30  1  0
  8 31  1  0
 10 32  1  0
 10 33  1  0
 11 34  1  0
 11 35  1  0
 12 36  1  0
 12 37  1  0
 13 38  1  0
 13 39  1  0
 14 40  1  0
 18 41  1  0
 18 42  1  0
 18 43  1  0
 19 44  1  0
 19 45  1  0
 22 46  1  0
 22 47  1  0
M  END
>  <Energy>  (87) 
63.142441004028747

>  <compound_id>  (87) 
1429

>  <target_id>  (87) 
1

>  <reference_id>  (87) 
5

>  <inspiration_ids>  (87) 
[5, 4]

>  <energy_score>  (87) 
-32.34240261429963

>  <distance_score>  (87) 
1.8205818312114903

>  <path>  (87) 
/opt/xchem-fragalysis-2/maxwin/BulkDock/SCRATCH/505732/C1429-P5/C1429-P5.minimised.mol

>  <scratch_subdir>  (87) 
/opt/xchem-fragalysis-2/maxwin/BulkDock/SCRATCH/505732/C1429-P5

>  <fragmenstein_runtime>  (87) 
2.676112174987793

>  <fragmenstein_outcome>  (87) 
too moved

>  <fragmenstein_mode>  (87) 
expansion

>  <fragmenstein_error>  (87) 


$$$$
C1429-P4
     RDKit          3D

 47 49  0  0  0  0  0  0  0  0999 V2000
   16.8482    0.4846   10.5307 C   0  0  0  0  0  0  0  0  0  0  0  0
   15.6964   -0.4723   10.3680 C   0  0  0  0  0  0  0  0  0  0  0  0
   15.2112   -0.7087    9.2683 O   0  0  0  0  0  0  0  0  0  0  0  0
   15.2187   -0.9534   11.5593 N   0  0  0  0  0  0  0  0  0  0  0  0
   15.6781   -2.1956   12.1022 C   0  0  0  0  0  0  0  0  0  0  0  0
   15.5583   -1.9305   13.6040 C   0  0  0  0  0  0  0  0  0  0  0  0
   16.7707   -1.0896   14.0303 C   0  0  0  0  0  0  0  0  0  0  0  0
   16.5475    0.3056   13.9442 O   0  0  0  0  0  0  0  0  0  0  0  0
   14.1695   -1.1959   13.7282 C   0  0  0  0  0  0  0  0  0  0  0  0
   13.0043   -2.2587   13.7129 C   0  0  0  0  0  0  0  0  0  0  0  0
   12.5194   -2.7538   15.1057 C   0  0  0  0  0  0  0  0  0  0  0  0
   13.5694   -2.6886   16.2194 C   0  0  0  0  0  0  0  0  0  0  0  0
   14.3562   -1.3722   16.2310 C   0  0  0  0  0  0  0  0  0  0  0  0
   13.9027   -0.4511   15.0679 C   0  0  0  0  0  0  0  0  0  0  0  0
   14.2365    0.9580   15.1954 N   0  0  0  0  0  0  0  0  0  0  0  0
   15.0345    1.4104   16.2203 N   0  0  0  0  0  0  0  0  0  0  0  0
   14.8643    2.6974   16.2694 C   0  0  0  0  0  0  0  0  0  0  0  0
   15.5477    3.5877   17.2417 C   0  0  0  0  0  0  0  0  0  0  0  0
   13.8916    3.2378   15.2742 C   0  0  0  0  0  0  0  0  0  0  0  0
   13.4659    1.9796   14.5933 C   0  0  0  0  0  0  0  0  0  0  0  0
   12.5945    1.8948   13.7411 O   0  0  0  0  0  0  0  0  0  0  0  0
   14.2231   -0.3251   12.4272 C   0  0  0  0  0  0  0  0  0  0  0  0
   17.4077    0.5400    9.5922 H   0  0  0  0  0  0  0  0  0  0  0  0
   16.4646    1.4763   10.7848 H   0  0  0  0  0  0  0  0  0  0  0  0
   17.5330    0.1431   11.3112 H   0  0  0  0  0  0  0  0  0  0  0  0
   15.0032   -2.9851   11.7577 H   0  0  0  0  0  0  0  0  0  0  0  0
   16.6877   -2.4389   11.7557 H   0  0  0  0  0  0  0  0  0  0  0  0
   15.5956   -2.8859   14.1331 H   0  0  0  0  0  0  0  0  0  0  0  0
   17.6520   -1.3252   13.4232 H   0  0  0  0  0  0  0  0  0  0  0  0
   17.0748   -1.3176   15.0559 H   0  0  0  0  0  0  0  0  0  0  0  0
   16.1775    0.6030   14.8014 H   0  0  0  0  0  0  0  0  0  0  0  0
   12.1285   -1.8146   13.2308 H   0  0  0  0  0  0  0  0  0  0  0  0
   13.2815   -3.1205   13.1062 H   0  0  0  0  0  0  0  0  0  0  0  0
   12.1005   -3.7590   15.0251 H   0  0  0  0  0  0  0  0  0  0  0  0
   11.6607   -2.1387   15.4095 H   0  0  0  0  0  0  0  0  0  0  0  0
   13.0731   -2.8334   17.1843 H   0  0  0  0  0  0  0  0  0  0  0  0
   14.2778   -3.5176   16.1364 H   0  0  0  0  0  0  0  0  0  0  0  0
   14.3020   -0.8969   17.2133 H   0  0  0  0  0  0  0  0  0  0  0  0
   15.4197   -1.6051   16.1759 H   0  0  0  0  0  0  0  0  0  0  0  0
   12.8180   -0.3752   15.1293 H   0  0  0  0  0  0  0  0  0  0  0  0
   16.2478    3.0168   17.8564 H   0  0  0  0  0  0  0  0  0  0  0  0
   16.0934    4.3665   16.7028 H   0  0  0  0  0  0  0  0  0  0  0  0
   14.8023    4.0557   17.8895 H   0  0  0  0  0  0  0  0  0  0  0  0
   14.3869    3.9141   14.5757 H   0  0  0  0  0  0  0  0  0  0  0  0
   13.0496    3.7114   15.7823 H   0  0  0  0  0  0  0  0  0  0  0  0
   13.2833   -0.2358   11.9060 H   0  0  0  0  0  0  0  0  0  0  0  0
   14.5786    0.6937   12.5914 H   0  0  0  0  0  0  0  0  0  0  0  0
  1  2  1  0
  2  3  2  0
  2  4  1  0
  4  5  1  0
  5  6  1  0
  6  7  1  0
  7  8  1  0
  6  9  1  0
  9 10  1  0
 10 11  1  0
 11 12  1  0
 12 13  1  0
 13 14  1  0
 14 15  1  0
 15 16  1  0
 16 17  2  0
 17 18  1  0
 17 19  1  0
 19 20  1  0
 20 21  2  0
  9 22  1  0
 22  4  1  0
 14  9  1  0
 20 15  1  0
  1 23  1  0
  1 24  1  0
  1 25  1  0
  5 26  1  0
  5 27  1  0
  6 28  1  0
  7 29  1  0
  7 30  1  0
  8 31  1  0
 10 32  1  0
 10 33  1  0
 11 34  1  0
 11 35  1  0
 12 36  1  0
 12 37  1  0
 13 38  1  0
 13 39  1  0
 14 40  1  0
 18 41  1  0
 18 42  1  0
 18 43  1  0
 19 44  1  0
 19 45  1  0
 22 46  1  0
 22 47  1  0
M  END
>  <Energy>  (88) 
73.368314555355596

>  <compound_id>  (88) 
1429

>  <target_id>  (88) 
1

>  <reference_id>  (88) 
4

>  <inspiration_ids>  (88) 
[5, 4]

>  <energy_score>  (88) 
-22.116529062970045

>  <distance_score>  (88) 
1.6833464586037012

>  <path>  (88) 
/opt/xchem-fragalysis-2/maxwin/BulkDock/SCRATCH/505732/C1429-P4/C1429-P4.minimised.mol

>  <scratch_subdir>  (88) 
/opt/xchem-fragalysis-2/maxwin/BulkDock/SCRATCH/505732/C1429-P4

>  <fragmenstein_runtime>  (88) 
2.873131513595581

>  <fragmenstein_outcome>  (88) 
too moved

>  <fragmenstein_mode>  (88) 
expansion

>  <fragmenstein_error>  (88) 


$$$$
C1430-P5
     RDKit          3D

 24 25  0  0  0  0  0  0  0  0999 V2000
   15.1774    3.3361   17.0481 C   0  0  0  0  0  0  0  0  0  0  0  0
   14.0328    2.4996   16.5962 C   0  0  0  0  0  0  0  0  0  0  0  0
   14.0438    1.2032   16.5785 N   0  0  0  0  0  0  0  0  0  0  0  0
   12.8196    0.8166   16.0718 N   0  0  0  0  0  0  0  0  0  0  0  0
   12.5324   -0.5641   15.9505 C   0  0  0  0  0  0  0  0  0  0  0  0
   11.3949   -0.9998   15.2606 C   0  0  0  0  0  0  0  0  0  0  0  0
   11.0740   -2.3532   15.1966 C   0  0  0  0  0  0  0  0  0  0  0  0
   11.8744   -3.2916   15.8263 C   0  0  0  0  0  0  0  0  0  0  0  0
   13.0254   -2.8805   16.4762 C   0  0  0  0  0  0  0  0  0  0  0  0
   13.8253   -3.8106   17.0694 O   0  0  0  0  0  0  0  0  0  0  0  0
   13.3666   -1.5313   16.5388 C   0  0  0  0  0  0  0  0  0  0  0  0
   11.9549    1.8905   15.7943 C   0  0  0  0  0  0  0  0  0  0  0  0
   10.7931    1.9068   15.4175 O   0  0  0  0  0  0  0  0  0  0  0  0
   12.7605    3.1120   16.1117 C   0  0  0  0  0  0  0  0  0  0  0  0
   15.5078    3.9738   16.2241 H   0  0  0  0  0  0  0  0  0  0  0  0
   16.0087    2.7037   17.3701 H   0  0  0  0  0  0  0  0  0  0  0  0
   14.8589    3.9652   17.8833 H   0  0  0  0  0  0  0  0  0  0  0  0
   10.7354   -0.3101   14.7394 H   0  0  0  0  0  0  0  0  0  0  0  0
   10.1820   -2.6676   14.6646 H   0  0  0  0  0  0  0  0  0  0  0  0
   11.5752   -4.3316   15.8180 H   0  0  0  0  0  0  0  0  0  0  0  0
   13.5543   -4.6819   16.7306 H   0  0  0  0  0  0  0  0  0  0  0  0
   14.2677   -1.2399   17.0707 H   0  0  0  0  0  0  0  0  0  0  0  0
   12.2907    3.6951   16.9055 H   0  0  0  0  0  0  0  0  0  0  0  0
   12.9369    3.7076   15.2143 H   0  0  0  0  0  0  0  0  0  0  0  0
  1  2  1  0
  2  3  2  0
  3  4  1  0
  4  5  1  0
  5  6  2  0
  6  7  1  0
  7  8  2  0
  8  9  1  0
  9 10  1  0
  9 11  2  0
  4 12  1  0
 12 13  2  0
 12 14  1  0
 14  2  1  0
 11  5  1  0
  1 15  1  0
  1 16  1  0
  1 17  1  0
  6 18  1  0
  7 19  1  0
  8 20  1  0
 10 21  1  0
 11 22  1  0
 14 23  1  0
 14 24  1  0
M  END
>  <Energy>  (89) 
30.381387984696854

>  <compound_id>  (89) 
1430

>  <target_id>  (89) 
1

>  <reference_id>  (89) 
5

>  <inspiration_ids>  (89) 
[5, 6]

>  <energy_score>  (89) 
-35.5823019253327

>  <distance_score>  (89) 
0.6268468315099496

>  <path>  (89) 
/opt/xchem-fragalysis-2/maxwin/BulkDock/SCRATCH/505732/C1430-P5/C1430-P5.minimised.mol

>  <scratch_subdir>  (89) 
/opt/xchem-fragalysis-2/maxwin/BulkDock/SCRATCH/505732/C1430-P5

>  <fragmenstein_runtime>  (89) 
0.7236502170562744

>  <fragmenstein_outcome>  (89) 
acceptable

>  <fragmenstein_mode>  (89) 
expansion

>  <fragmenstein_error>  (89) 


$$$$
C1430-P6
     RDKit          3D

 24 25  0  0  0  0  0  0  0  0999 V2000
   15.1626    3.3287   17.0266 C   0  0  0  0  0  0  0  0  0  0  0  0
   14.0171    2.4909   16.5794 C   0  0  0  0  0  0  0  0  0  0  0  0
   14.0189    1.1945   16.5876 N   0  0  0  0  0  0  0  0  0  0  0  0
   12.7979    0.8052   16.0745 N   0  0  0  0  0  0  0  0  0  0  0  0
   12.5081   -0.5760   15.9678 C   0  0  0  0  0  0  0  0  0  0  0  0
   11.3822   -1.0218   15.2653 C   0  0  0  0  0  0  0  0  0  0  0  0
   11.0613   -2.3770   15.2170 C   0  0  0  0  0  0  0  0  0  0  0  0
   11.8454   -3.3057   15.8817 C   0  0  0  0  0  0  0  0  0  0  0  0
   12.9835   -2.8831   16.5464 C   0  0  0  0  0  0  0  0  0  0  0  0
   13.7648   -3.7946   17.1885 O   0  0  0  0  0  0  0  0  0  0  0  0
   13.3305   -1.5345   16.5841 C   0  0  0  0  0  0  0  0  0  0  0  0
   11.9429    1.8778   15.7688 C   0  0  0  0  0  0  0  0  0  0  0  0
   10.7840    1.8939   15.3838 O   0  0  0  0  0  0  0  0  0  0  0  0
   12.7519    3.1010   16.0732 C   0  0  0  0  0  0  0  0  0  0  0  0
   15.5003    3.9540   16.1961 H   0  0  0  0  0  0  0  0  0  0  0  0
   15.9894    2.6973   17.3618 H   0  0  0  0  0  0  0  0  0  0  0  0
   14.8419    3.9703   17.8514 H   0  0  0  0  0  0  0  0  0  0  0  0
   10.7340   -0.3395   14.7206 H   0  0  0  0  0  0  0  0  0  0  0  0
   10.1812   -2.7014   14.6702 H   0  0  0  0  0  0  0  0  0  0  0  0
   11.5462   -4.3465   15.8855 H   0  0  0  0  0  0  0  0  0  0  0  0
   13.4236   -4.6846   16.9780 H   0  0  0  0  0  0  0  0  0  0  0  0
   14.2228   -1.2365   17.1270 H   0  0  0  0  0  0  0  0  0  0  0  0
   12.2774    3.6973   16.8547 H   0  0  0  0  0  0  0  0  0  0  0  0
   12.9385    3.6819   15.1683 H   0  0  0  0  0  0  0  0  0  0  0  0
  1  2  1  0
  2  3  2  0
  3  4  1  0
  4  5  1  0
  5  6  2  0
  6  7  1  0
  7  8  2  0
  8  9  1  0
  9 10  1  0
  9 11  2  0
  4 12  1  0
 12 13  2  0
 12 14  1  0
 14  2  1  0
 11  5  1  0
  1 15  1  0
  1 16  1  0
  1 17  1  0
  6 18  1  0
  7 19  1  0
  8 20  1  0
 10 21  1  0
 11 22  1  0
 14 23  1  0
 14 24  1  0
M  END
>  <Energy>  (90) 
30.202442115832326

>  <compound_id>  (90) 
1430

>  <target_id>  (90) 
1

>  <reference_id>  (90) 
6

>  <inspiration_ids>  (90) 
[5, 6]

>  <energy_score>  (90) 
-35.76124779419689

>  <distance_score>  (90) 
0.6132797688983085

>  <path>  (90) 
/opt/xchem-fragalysis-2/maxwin/BulkDock/SCRATCH/505732/C1430-P6/C1430-P6.minimised.mol

>  <scratch_subdir>  (90) 
/opt/xchem-fragalysis-2/maxwin/BulkDock/SCRATCH/505732/C1430-P6

>  <fragmenstein_runtime>  (90) 
0.6757063865661621

>  <fragmenstein_outcome>  (90) 
acceptable

>  <fragmenstein_mode>  (90) 
expansion

>  <fragmenstein_error>  (90) 


$$$$
C1431-P5
     RDKit          3D

 26 27  0  0  0  0  0  0  0  0999 V2000
   15.3535    3.6014   16.8258 C   0  0  0  0  0  0  0  0  0  0  0  0
   14.0007    3.0502   16.5500 C   0  0  0  0  0  0  0  0  0  0  0  0
   13.7735    1.8091   16.2556 N   0  0  0  0  0  0  0  0  0  0  0  0
   12.4101    1.7091   16.0876 N   0  0  0  0  0  0  0  0  0  0  0  0
   11.8466    0.4671   15.7599 C   0  0  0  0  0  0  0  0  0  0  0  0
   10.4581    0.2559   15.8385 C   0  0  0  0  0  0  0  0  0  0  0  0
    9.8918   -0.9727   15.5421 C   0  0  0  0  0  0  0  0  0  0  0  0
   10.7062   -1.9835   15.0940 C   0  0  0  0  0  0  0  0  0  0  0  0
   12.0485   -1.7093   14.8489 C   0  0  0  0  0  0  0  0  0  0  0  0
   12.6676   -2.5581   13.8550 C   0  0  0  0  0  0  0  0  0  0  0  0
   12.0967   -3.5370   13.4166 O   0  0  0  0  0  0  0  0  0  0  0  0
   13.8551   -2.1229   13.4012 O   0  0  0  0  0  0  0  0  0  0  0  0
   12.6604   -0.5489   15.2883 C   0  0  0  0  0  0  0  0  0  0  0  0
   11.7175    2.9114   16.2435 C   0  0  0  0  0  0  0  0  0  0  0  0
   10.5280    3.1505   16.1080 O   0  0  0  0  0  0  0  0  0  0  0  0
   12.7777    3.9098   16.5826 C   0  0  0  0  0  0  0  0  0  0  0  0
   15.5848    4.3779   16.0922 H   0  0  0  0  0  0  0  0  0  0  0  0
   16.1077    2.8125   16.7652 H   0  0  0  0  0  0  0  0  0  0  0  0
   15.3694    4.0384   17.8276 H   0  0  0  0  0  0  0  0  0  0  0  0
    9.7797    1.0430   16.1530 H   0  0  0  0  0  0  0  0  0  0  0  0
    8.8149   -1.1120   15.5734 H   0  0  0  0  0  0  0  0  0  0  0  0
   10.2542   -2.9113   14.7527 H   0  0  0  0  0  0  0  0  0  0  0  0
   14.0882   -2.7371   12.6720 H   0  0  0  0  0  0  0  0  0  0  0  0
   13.7173   -0.3781   15.1069 H   0  0  0  0  0  0  0  0  0  0  0  0
   12.8389    4.6876   15.8193 H   0  0  0  0  0  0  0  0  0  0  0  0
   12.6264    4.3257   17.5796 H   0  0  0  0  0  0  0  0  0  0  0  0
  1  2  1  0
  2  3  2  0
  3  4  1  0
  4  5  1  0
  5  6  2  0
  6  7  1  0
  7  8  2  0
  8  9  1  0
  9 10  1  0
 10 11  2  0
 10 12  1  0
  9 13  2  0
  4 14  1  0
 14 15  2  0
 14 16  1  0
 16  2  1  0
 13  5  1  0
  1 17  1  0
  1 18  1  0
  1 19  1  0
  6 20  1  0
  7 21  1  0
  8 22  1  0
 12 23  1  0
 13 24  1  0
 16 25  1  0
 16 26  1  0
M  END
>  <Energy>  (91) 
39.00277650580388

>  <compound_id>  (91) 
1431

>  <target_id>  (91) 
1

>  <reference_id>  (91) 
5

>  <inspiration_ids>  (91) 
[5, 8]

>  <energy_score>  (91) 
-9.395634040296699

>  <distance_score>  (91) 
1.8512267019008892

>  <path>  (91) 
/opt/xchem-fragalysis-2/maxwin/BulkDock/SCRATCH/505732/C1431-P5/C1431-P5.minimised.mol

>  <scratch_subdir>  (91) 
/opt/xchem-fragalysis-2/maxwin/BulkDock/SCRATCH/505732/C1431-P5

>  <fragmenstein_runtime>  (91) 
1.255521535873413

>  <fragmenstein_outcome>  (91) 
too moved

>  <fragmenstein_mode>  (91) 
expansion

>  <fragmenstein_error>  (91) 


$$$$
C1431-P8
     RDKit          3D

 26 27  0  0  0  0  0  0  0  0999 V2000
   14.9967    3.9333   16.9056 C   0  0  0  0  0  0  0  0  0  0  0  0
   13.8681    3.0087   16.6210 C   0  0  0  0  0  0  0  0  0  0  0  0
   14.0274    1.7612   16.3169 N   0  0  0  0  0  0  0  0  0  0  0  0
   12.7631    1.2448   16.1389 N   0  0  0  0  0  0  0  0  0  0  0  0
   12.6402   -0.0534   15.6059 C   0  0  0  0  0  0  0  0  0  0  0  0
   11.4072   -0.7144   15.5518 C   0  0  0  0  0  0  0  0  0  0  0  0
   11.2728   -1.9212   14.8729 C   0  0  0  0  0  0  0  0  0  0  0  0
   12.3435   -2.4122   14.1427 C   0  0  0  0  0  0  0  0  0  0  0  0
   13.5762   -1.7574   14.1924 C   0  0  0  0  0  0  0  0  0  0  0  0
   14.6531   -2.1471   13.2694 C   0  0  0  0  0  0  0  0  0  0  0  0
   14.5372   -2.3186   12.0721 O   0  0  0  0  0  0  0  0  0  0  0  0
   15.7944   -2.3915   13.9340 O   0  0  0  0  0  0  0  0  0  0  0  0
   13.7523   -0.6383   14.9970 C   0  0  0  0  0  0  0  0  0  0  0  0
   11.7322    2.1845   16.2937 C   0  0  0  0  0  0  0  0  0  0  0  0
   10.5252    2.0617   16.1525 O   0  0  0  0  0  0  0  0  0  0  0  0
   12.4439    3.4584   16.6421 C   0  0  0  0  0  0  0  0  0  0  0  0
   15.0017    4.7368   16.1645 H   0  0  0  0  0  0  0  0  0  0  0  0
   15.9496    3.3995   16.8645 H   0  0  0  0  0  0  0  0  0  0  0  0
   14.8688    4.3655   17.9014 H   0  0  0  0  0  0  0  0  0  0  0  0
   10.5165   -0.2814   15.9935 H   0  0  0  0  0  0  0  0  0  0  0  0
   10.3039   -2.4095   14.8083 H   0  0  0  0  0  0  0  0  0  0  0  0
   12.1842   -3.2575   13.4799 H   0  0  0  0  0  0  0  0  0  0  0  0
   16.3511   -2.8452   13.2639 H   0  0  0  0  0  0  0  0  0  0  0  0
   14.7184   -0.1395   15.0003 H   0  0  0  0  0  0  0  0  0  0  0  0
   12.2747    4.2182   15.8767 H   0  0  0  0  0  0  0  0  0  0  0  0
   12.1726    3.8133   17.6350 H   0  0  0  0  0  0  0  0  0  0  0  0
  1  2  1  0
  2  3  2  0
  3  4  1  0
  4  5  1  0
  5  6  2  0
  6  7  1  0
  7  8  2  0
  8  9  1  0
  9 10  1  0
 10 11  2  0
 10 12  1  0
  9 13  2  0
  4 14  1  0
 14 15  2  0
 14 16  1  0
 16  2  1  0
 13  5  1  0
  1 17  1  0
  1 18  1  0
  1 19  1  0
  6 20  1  0
  7 21  1  0
  8 22  1  0
 12 23  1  0
 13 24  1  0
 16 25  1  0
 16 26  1  0
M  END
>  <Energy>  (92) 
37.007121891633545

>  <compound_id>  (92) 
1431

>  <target_id>  (92) 
1

>  <reference_id>  (92) 
8

>  <inspiration_ids>  (92) 
[5, 8]

>  <energy_score>  (92) 
-11.39128865446716

>  <distance_score>  (92) 
1.74468963288827

>  <path>  (92) 
/opt/xchem-fragalysis-2/maxwin/BulkDock/SCRATCH/505732/C1431-P8/C1431-P8.minimised.mol

>  <scratch_subdir>  (92) 
/opt/xchem-fragalysis-2/maxwin/BulkDock/SCRATCH/505732/C1431-P8

>  <fragmenstein_runtime>  (92) 
1.288956880569458

>  <fragmenstein_outcome>  (92) 
too moved

>  <fragmenstein_mode>  (92) 
expansion

>  <fragmenstein_error>  (92) 


$$$$
C1433-P5
     RDKit          3D

 49 51  0  0  0  0  0  0  0  0999 V2000
   10.2668   -1.9379   15.3848 C   0  0  0  0  0  0  0  0  0  0  0  0
   11.4322   -2.7729   15.8714 C   0  0  0  0  0  0  0  0  0  0  0  0
   12.4914   -2.9039   14.8173 C   0  0  0  0  0  0  0  0  0  0  0  0
   12.7772   -1.7152   13.9054 C   0  0  0  0  0  0  0  0  0  0  0  0
   12.8410   -0.3153   14.5200 C   0  0  0  0  0  0  0  0  0  0  0  0
   12.8310   -0.2683   16.0413 C   0  0  0  0  0  0  0  0  0  0  0  0
   13.5293    0.9321   16.2773 N   0  0  0  0  0  0  0  0  0  0  0  0
   12.7284    2.0935   16.1070 C   0  0  0  0  0  0  0  0  0  0  0  0
   11.5250    2.1835   16.3180 O   0  0  0  0  0  0  0  0  0  0  0  0
   13.5678    3.1397   15.4271 C   0  0  0  0  0  0  0  0  0  0  0  0
   14.9677    2.4982   15.4214 C   0  0  0  0  0  0  0  0  0  0  0  0
   15.7030    2.9887   16.6778 C   0  0  0  0  0  0  0  0  0  0  0  0
   14.6631    0.9793   15.3865 C   0  0  0  0  0  0  0  0  0  0  0  0
   15.8866   -0.0770   15.6633 C   0  0  0  0  0  0  0  0  0  0  0  0
   17.1388    0.3749   14.9067 C   0  0  0  0  0  0  0  0  0  0  0  0
   16.1807   -0.3568   17.1427 C   0  0  0  0  0  0  0  0  0  0  0  0
   16.8961   -1.6979   17.1613 C   0  0  0  0  0  0  0  0  0  0  0  0
   16.4212   -2.4269   15.9216 C   0  0  0  0  0  0  0  0  0  0  0  0
   15.6304   -1.4677   15.1528 N   0  0  0  0  0  0  0  0  0  0  0  0
   14.0160    0.5376   14.1009 N   0  0  0  0  0  0  0  0  0  0  0  0
   10.5018   -1.1092   14.7254 H   0  0  0  0  0  0  0  0  0  0  0  0
    9.6995   -1.4778   16.1877 H   0  0  0  0  0  0  0  0  0  0  0  0
    9.5744   -2.5778   14.8324 H   0  0  0  0  0  0  0  0  0  0  0  0
   11.0979   -3.7816   16.1307 H   0  0  0  0  0  0  0  0  0  0  0  0
   11.8490   -2.3835   16.7986 H   0  0  0  0  0  0  0  0  0  0  0  0
   12.1482   -3.6910   14.1450 H   0  0  0  0  0  0  0  0  0  0  0  0
   13.4101   -3.2332   15.3099 H   0  0  0  0  0  0  0  0  0  0  0  0
   11.9951   -1.6905   13.1415 H   0  0  0  0  0  0  0  0  0  0  0  0
   13.6834   -1.9374   13.3292 H   0  0  0  0  0  0  0  0  0  0  0  0
   11.9797    0.2523   14.1426 H   0  0  0  0  0  0  0  0  0  0  0  0
   13.3994   -1.0646   16.5235 H   0  0  0  0  0  0  0  0  0  0  0  0
   11.8283   -0.2114   16.4591 H   0  0  0  0  0  0  0  0  0  0  0  0
   13.5181    4.0888   15.9668 H   0  0  0  0  0  0  0  0  0  0  0  0
   13.1955    3.2758   14.4064 H   0  0  0  0  0  0  0  0  0  0  0  0
   15.5318    2.8189   14.5381 H   0  0  0  0  0  0  0  0  0  0  0  0
   16.7271    2.6160   16.7269 H   0  0  0  0  0  0  0  0  0  0  0  0
   15.7676    4.0828   16.6788 H   0  0  0  0  0  0  0  0  0  0  0  0
   15.1938    2.6858   17.5990 H   0  0  0  0  0  0  0  0  0  0  0  0
   17.9610   -0.3483   14.9648 H   0  0  0  0  0  0  0  0  0  0  0  0
   16.9313    0.5316   13.8414 H   0  0  0  0  0  0  0  0  0  0  0  0
   17.5429    1.3109   15.2977 H   0  0  0  0  0  0  0  0  0  0  0  0
   15.2604   -0.4423   17.7305 H   0  0  0  0  0  0  0  0  0  0  0  0
   16.7952    0.4185   17.6101 H   0  0  0  0  0  0  0  0  0  0  0  0
   17.9808   -1.5443   17.1175 H   0  0  0  0  0  0  0  0  0  0  0  0
   16.6770   -2.2546   18.0780 H   0  0  0  0  0  0  0  0  0  0  0  0
   15.8019   -3.2908   16.1822 H   0  0  0  0  0  0  0  0  0  0  0  0
   17.2740   -2.7922   15.3390 H   0  0  0  0  0  0  0  0  0  0  0  0
   15.8660   -1.5629   14.1659 H   0  0  0  0  0  0  0  0  0  0  0  0
   14.6721   -0.0683   13.6170 H   0  0  0  0  0  0  0  0  0  0  0  0
  1  2  1  0
  2  3  1  0
  3  4  1  0
  4  5  1  0
  5  6  1  0
  6  7  1  0
  7  8  1  0
  8  9  2  0
  8 10  1  0
 10 11  1  0
 11 12  1  0
 11 13  1  0
 13 14  1  0
 14 15  1  0
 14 16  1  0
 16 17  1  0
 17 18  1  0
 18 19  1  0
 13 20  1  0
 20  5  1  0
 13  7  1  0
 19 14  1  0
  1 21  1  0
  1 22  1  0
  1 23  1  0
  2 24  1  0
  2 25  1  0
  3 26  1  0
  3 27  1  0
  4 28  1  0
  4 29  1  0
  5 30  1  0
  6 31  1  0
  6 32  1  0
 10 33  1  0
 10 34  1  0
 11 35  1  0
 12 36  1  0
 12 37  1  0
 12 38  1  0
 15 39  1  0
 15 40  1  0
 15 41  1  0
 16 42  1  0
 16 43  1  0
 17 44  1  0
 17 45  1  0
 18 46  1  0
 18 47  1  0
 19 48  1  0
 20 49  1  0
M  END
>  <Energy>  (93) 
69.521616806113599

>  <compound_id>  (93) 
1433

>  <target_id>  (93) 
1

>  <reference_id>  (93) 
5

>  <inspiration_ids>  (93) 
[5, 12]

>  <energy_score>  (93) 
-46.243720858802845

>  <distance_score>  (93) 
1.9706040557536697

>  <path>  (93) 
/opt/xchem-fragalysis-2/maxwin/BulkDock/SCRATCH/505732/C1433-P5/C1433-P5.minimised.mol

>  <scratch_subdir>  (93) 
/opt/xchem-fragalysis-2/maxwin/BulkDock/SCRATCH/505732/C1433-P5

>  <fragmenstein_runtime>  (93) 
2.426316499710083

>  <fragmenstein_outcome>  (93) 
too moved

>  <fragmenstein_mode>  (93) 
expansion

>  <fragmenstein_error>  (93) 


$$$$
C1433-P12
     RDKit          3D

 49 51  0  0  0  0  0  0  0  0999 V2000
   10.2337   -1.8730   15.4011 C   0  0  0  0  0  0  0  0  0  0  0  0
   11.3920   -2.7013   15.9088 C   0  0  0  0  0  0  0  0  0  0  0  0
   12.4428   -2.8624   14.8556 C   0  0  0  0  0  0  0  0  0  0  0  0
   12.7537   -1.6975   13.9226 C   0  0  0  0  0  0  0  0  0  0  0  0
   12.8416   -0.2926   14.5184 C   0  0  0  0  0  0  0  0  0  0  0  0
   12.8567   -0.2385   16.0383 C   0  0  0  0  0  0  0  0  0  0  0  0
   13.5596    0.9599   16.2558 N   0  0  0  0  0  0  0  0  0  0  0  0
   12.7584    2.1215   16.0793 C   0  0  0  0  0  0  0  0  0  0  0  0
   11.5557    2.2132   16.2922 O   0  0  0  0  0  0  0  0  0  0  0  0
   13.5975    3.1617   15.3896 C   0  0  0  0  0  0  0  0  0  0  0  0
   14.9939    2.5143   15.3861 C   0  0  0  0  0  0  0  0  0  0  0  0
   15.7263    2.9986   16.6488 C   0  0  0  0  0  0  0  0  0  0  0  0
   14.6832    0.9967   15.3523 C   0  0  0  0  0  0  0  0  0  0  0  0
   15.9113   -0.0596   15.6173 C   0  0  0  0  0  0  0  0  0  0  0  0
   17.1601    0.4103   14.8652 C   0  0  0  0  0  0  0  0  0  0  0  0
   16.2316   -0.3303   17.1026 C   0  0  0  0  0  0  0  0  0  0  0  0
   16.2247   -1.8445   17.2762 C   0  0  0  0  0  0  0  0  0  0  0  0
   16.3986   -2.3974   15.8853 C   0  0  0  0  0  0  0  0  0  0  0  0
   15.6647   -1.4404   15.0653 N   0  0  0  0  0  0  0  0  0  0  0  0
   14.0218    0.5443   14.0768 N   0  0  0  0  0  0  0  0  0  0  0  0
   10.4819   -1.0395   14.7525 H   0  0  0  0  0  0  0  0  0  0  0  0
    9.6347   -1.4198   16.1826 H   0  0  0  0  0  0  0  0  0  0  0  0
    9.5609   -2.5217   14.8354 H   0  0  0  0  0  0  0  0  0  0  0  0
   11.0530   -3.7023   16.1889 H   0  0  0  0  0  0  0  0  0  0  0  0
   11.8202   -2.2960   16.8223 H   0  0  0  0  0  0  0  0  0  0  0  0
   12.0710   -3.6465   14.1965 H   0  0  0  0  0  0  0  0  0  0  0  0
   13.3548   -3.2015   15.3553 H   0  0  0  0  0  0  0  0  0  0  0  0
   11.9759   -1.6736   13.1549 H   0  0  0  0  0  0  0  0  0  0  0  0
   13.6581   -1.9447   13.3542 H   0  0  0  0  0  0  0  0  0  0  0  0
   11.9812    0.2811   14.1488 H   0  0  0  0  0  0  0  0  0  0  0  0
   13.4319   -1.0319   16.5173 H   0  0  0  0  0  0  0  0  0  0  0  0
   11.8608   -0.1748   16.4700 H   0  0  0  0  0  0  0  0  0  0  0  0
   13.5536    4.1144   15.9234 H   0  0  0  0  0  0  0  0  0  0  0  0
   13.2229    3.2917   14.3690 H   0  0  0  0  0  0  0  0  0  0  0  0
   15.5626    2.8318   14.5046 H   0  0  0  0  0  0  0  0  0  0  0  0
   16.7267    2.5727   16.7387 H   0  0  0  0  0  0  0  0  0  0  0  0
   15.8453    4.0877   16.6223 H   0  0  0  0  0  0  0  0  0  0  0  0
   15.1798    2.7494   17.5648 H   0  0  0  0  0  0  0  0  0  0  0  0
   17.9972   -0.2920   14.9579 H   0  0  0  0  0  0  0  0  0  0  0  0
   16.9638    0.5382   13.7938 H   0  0  0  0  0  0  0  0  0  0  0  0
   17.5380    1.3652   15.2361 H   0  0  0  0  0  0  0  0  0  0  0  0
   15.5077    0.1191   17.7891 H   0  0  0  0  0  0  0  0  0  0  0  0
   17.2179    0.0654   17.3731 H   0  0  0  0  0  0  0  0  0  0  0  0
   17.0098   -2.1818   17.9598 H   0  0  0  0  0  0  0  0  0  0  0  0
   15.2615   -2.1630   17.6938 H   0  0  0  0  0  0  0  0  0  0  0  0
   15.9873   -3.4062   15.7894 H   0  0  0  0  0  0  0  0  0  0  0  0
   17.4566   -2.4298   15.6039 H   0  0  0  0  0  0  0  0  0  0  0  0
   15.9760   -1.5314   14.0985 H   0  0  0  0  0  0  0  0  0  0  0  0
   14.6689   -0.0892   13.6132 H   0  0  0  0  0  0  0  0  0  0  0  0
  1  2  1  0
  2  3  1  0
  3  4  1  0
  4  5  1  0
  5  6  1  0
  6  7  1  0
  7  8  1  0
  8  9  2  0
  8 10  1  0
 10 11  1  0
 11 12  1  0
 11 13  1  0
 13 14  1  0
 14 15  1  0
 14 16  1  0
 16 17  1  0
 17 18  1  0
 18 19  1  0
 13 20  1  0
 20  5  1  0
 13  7  1  0
 19 14  1  0
  1 21  1  0
  1 22  1  0
  1 23  1  0
  2 24  1  0
  2 25  1  0
  3 26  1  0
  3 27  1  0
  4 28  1  0
  4 29  1  0
  5 30  1  0
  6 31  1  0
  6 32  1  0
 10 33  1  0
 10 34  1  0
 11 35  1  0
 12 36  1  0
 12 37  1  0
 12 38  1  0
 15 39  1  0
 15 40  1  0
 15 41  1  0
 16 42  1  0
 16 43  1  0
 17 44  1  0
 17 45  1  0
 18 46  1  0
 18 47  1  0
 19 48  1  0
 20 49  1  0
M  END
>  <Energy>  (94) 
69.388952710178572

>  <compound_id>  (94) 
1433

>  <target_id>  (94) 
1

>  <reference_id>  (94) 
12

>  <inspiration_ids>  (94) 
[5, 12]

>  <energy_score>  (94) 
-46.376384954738825

>  <distance_score>  (94) 
1.9670928696763907

>  <path>  (94) 
/opt/xchem-fragalysis-2/maxwin/BulkDock/SCRATCH/505732/C1433-P12/C1433-P12.minimised.mol

>  <scratch_subdir>  (94) 
/opt/xchem-fragalysis-2/maxwin/BulkDock/SCRATCH/505732/C1433-P12

>  <fragmenstein_runtime>  (94) 
1.7394251823425293

>  <fragmenstein_outcome>  (94) 
too moved

>  <fragmenstein_mode>  (94) 
expansion

>  <fragmenstein_error>  (94) 


$$$$
C1439-P5
     RDKit          3D

 37 38  0  0  0  0  0  0  0  0999 V2000
   13.4464    0.0267   13.5278 C   0  0  0  0  0  0  0  0  0  0  0  0
   14.6440    0.0236   12.5928 C   0  0  0  0  0  0  0  0  0  0  0  0
   14.7650   -1.2763   11.8087 C   0  0  0  0  0  0  0  0  0  0  0  0
   16.0358   -1.3067   11.0051 C   0  0  0  0  0  0  0  0  0  0  0  0
   16.2265   -0.8672    9.8861 O   0  0  0  0  0  0  0  0  0  0  0  0
   17.2182   -1.7439   11.7422 C   0  0  0  0  0  0  0  0  0  0  0  0
   17.2956   -2.9272   12.2534 N   0  0  0  0  0  0  0  0  0  0  0  0
   18.1132   -2.7364   13.4996 C   0  0  0  0  0  0  0  0  0  0  0  0
   19.1500   -3.8706   13.5009 C   0  0  0  0  0  0  0  0  0  0  0  0
   17.0683   -2.6689   14.7056 C   0  0  0  0  0  0  0  0  0  0  0  0
   16.4273   -3.8507   15.1137 C   0  0  0  0  0  0  0  0  0  0  0  0
   15.2443   -3.8412   15.9029 C   0  0  0  0  0  0  0  0  0  0  0  0
   14.6401   -2.6690   16.3141 C   0  0  0  0  0  0  0  0  0  0  0  0
   15.2967   -1.4970   16.0260 C   0  0  0  0  0  0  0  0  0  0  0  0
   16.5194   -1.4963   15.2973 C   0  0  0  0  0  0  0  0  0  0  0  0
   17.0572   -0.2302   15.0668 N   0  0  0  0  0  0  0  0  0  0  0  0
   18.8750   -1.4386   13.1891 C   0  0  0  0  0  0  0  0  0  0  0  0
   19.8297   -0.9834   13.8008 O   0  0  0  0  0  0  0  0  0  0  0  0
   18.2814   -0.7645   12.0096 C   0  0  0  0  0  0  0  0  0  0  0  0
   13.3838   -0.8924   14.1140 H   0  0  0  0  0  0  0  0  0  0  0  0
   13.5025    0.8769   14.2147 H   0  0  0  0  0  0  0  0  0  0  0  0
   12.5154    0.1218   12.9619 H   0  0  0  0  0  0  0  0  0  0  0  0
   14.5540    0.8648   11.8940 H   0  0  0  0  0  0  0  0  0  0  0  0
   15.5530    0.2158   13.1600 H   0  0  0  0  0  0  0  0  0  0  0  0
   13.9438   -1.3619   11.1066 H   0  0  0  0  0  0  0  0  0  0  0  0
   14.7172   -2.1526   12.4630 H   0  0  0  0  0  0  0  0  0  0  0  0
   19.8329   -3.7956   12.6462 H   0  0  0  0  0  0  0  0  0  0  0  0
   18.6760   -4.8562   13.4487 H   0  0  0  0  0  0  0  0  0  0  0  0
   19.7535   -3.8380   14.4148 H   0  0  0  0  0  0  0  0  0  0  0  0
   16.7750   -4.8123   14.7420 H   0  0  0  0  0  0  0  0  0  0  0  0
   14.7538   -4.7770   16.1366 H   0  0  0  0  0  0  0  0  0  0  0  0
   13.7127   -2.6795   16.8755 H   0  0  0  0  0  0  0  0  0  0  0  0
   14.8688   -0.5611   16.3773 H   0  0  0  0  0  0  0  0  0  0  0  0
   18.0794   -0.2315   15.1116 H   0  0  0  0  0  0  0  0  0  0  0  0
   16.7103    0.4798   15.7080 H   0  0  0  0  0  0  0  0  0  0  0  0
   17.8806    0.2150   12.2708 H   0  0  0  0  0  0  0  0  0  0  0  0
   18.9868   -0.7241   11.1786 H   0  0  0  0  0  0  0  0  0  0  0  0
  1  2  1  0
  2  3  1  0
  3  4  1  0
  4  5  2  0
  4  6  1  0
  6  7  2  0
  7  8  1  0
  8  9  1  0
  8 10  1  0
 10 11  2  0
 11 12  1  0
 12 13  2  0
 13 14  1  0
 14 15  2  0
 15 16  1  0
  8 17  1  0
 17 18  2  0
 17 19  1  0
 19  6  1  0
 15 10  1  0
  1 20  1  0
  1 21  1  0
  1 22  1  0
  2 23  1  0
  2 24  1  0
  3 25  1  0
  3 26  1  0
  9 27  1  0
  9 28  1  0
  9 29  1  0
 11 30  1  0
 12 31  1  0
 13 32  1  0
 14 33  1  0
 16 34  1  0
 16 35  1  0
 19 36  1  0
 19 37  1  0
M  END
>  <Energy>  (95) 
85.829073600495548

>  <compound_id>  (95) 
1439

>  <target_id>  (95) 
1

>  <reference_id>  (95) 
5

>  <inspiration_ids>  (95) 
[5, 29]

>  <energy_score>  (95) 
-33.415153840047935

>  <distance_score>  (95) 
3.0796545032208438

>  <path>  (95) 
/opt/xchem-fragalysis-2/maxwin/BulkDock/SCRATCH/505732/C1439-P5/C1439-P5.minimised.mol

>  <scratch_subdir>  (95) 
/opt/xchem-fragalysis-2/maxwin/BulkDock/SCRATCH/505732/C1439-P5

>  <fragmenstein_runtime>  (95) 
22.539741277694702

>  <fragmenstein_outcome>  (95) 
too moved

>  <fragmenstein_mode>  (95) 
expansion

>  <fragmenstein_error>  (95) 


$$$$
C1439-P29
     RDKit          3D

 37 38  0  0  0  0  0  0  0  0999 V2000
   13.2225   -0.3024   13.4311 C   0  0  0  0  0  0  0  0  0  0  0  0
   14.3184   -0.2708   12.3815 C   0  0  0  0  0  0  0  0  0  0  0  0
   14.6703   -1.6613   11.8600 C   0  0  0  0  0  0  0  0  0  0  0  0
   15.9376   -1.6001   11.0476 C   0  0  0  0  0  0  0  0  0  0  0  0
   16.0861   -1.1665    9.9191 O   0  0  0  0  0  0  0  0  0  0  0  0
   17.1663   -1.8978   11.7806 C   0  0  0  0  0  0  0  0  0  0  0  0
   17.3633   -3.0413   12.3513 N   0  0  0  0  0  0  0  0  0  0  0  0
   18.2295   -2.7106   13.5390 C   0  0  0  0  0  0  0  0  0  0  0  0
   19.3818   -3.7319   13.5014 C   0  0  0  0  0  0  0  0  0  0  0  0
   17.2717   -2.6867   14.8167 C   0  0  0  0  0  0  0  0  0  0  0  0
   17.0402   -3.8708   15.5382 C   0  0  0  0  0  0  0  0  0  0  0  0
   15.9434   -4.0149   16.4295 C   0  0  0  0  0  0  0  0  0  0  0  0
   15.0484   -2.9818   16.6682 C   0  0  0  0  0  0  0  0  0  0  0  0
   15.3032   -1.7712   16.0683 C   0  0  0  0  0  0  0  0  0  0  0  0
   16.4107   -1.6118   15.1943 C   0  0  0  0  0  0  0  0  0  0  0  0
   16.5746   -0.3226   14.6800 N   0  0  0  0  0  0  0  0  0  0  0  0
   18.8416   -1.3582   13.1427 C   0  0  0  0  0  0  0  0  0  0  0  0
   19.7638   -0.7766   13.6934 O   0  0  0  0  0  0  0  0  0  0  0  0
   18.1569   -0.8205   11.9430 C   0  0  0  0  0  0  0  0  0  0  0  0
   12.2703   -0.6083   12.9865 H   0  0  0  0  0  0  0  0  0  0  0  0
   13.4466   -1.0014   14.2365 H   0  0  0  0  0  0  0  0  0  0  0  0
   13.0873    0.6938   13.8617 H   0  0  0  0  0  0  0  0  0  0  0  0
   13.9848    0.3597   11.5495 H   0  0  0  0  0  0  0  0  0  0  0  0
   15.1992    0.2377   12.7752 H   0  0  0  0  0  0  0  0  0  0  0  0
   13.8779   -2.0617   11.2252 H   0  0  0  0  0  0  0  0  0  0  0  0
   14.7921   -2.3738   12.6821 H   0  0  0  0  0  0  0  0  0  0  0  0
   19.0132   -4.7626   13.5075 H   0  0  0  0  0  0  0  0  0  0  0  0
   20.0380   -3.6041   14.3696 H   0  0  0  0  0  0  0  0  0  0  0  0
   19.9952   -3.6158   12.5998 H   0  0  0  0  0  0  0  0  0  0  0  0
   17.6433   -4.7567   15.3537 H   0  0  0  0  0  0  0  0  0  0  0  0
   15.7868   -4.9801   16.9100 H   0  0  0  0  0  0  0  0  0  0  0  0
   14.2062   -3.1216   17.3376 H   0  0  0  0  0  0  0  0  0  0  0  0
   14.6494   -0.9329   16.2868 H   0  0  0  0  0  0  0  0  0  0  0  0
   15.9462    0.3613   15.0963 H   0  0  0  0  0  0  0  0  0  0  0  0
   17.5360   -0.0026   14.8190 H   0  0  0  0  0  0  0  0  0  0  0  0
   18.8311   -0.7869   11.0859 H   0  0  0  0  0  0  0  0  0  0  0  0
   17.6884    0.1426   12.1455 H   0  0  0  0  0  0  0  0  0  0  0  0
  1  2  1  0
  2  3  1  0
  3  4  1  0
  4  5  2  0
  4  6  1  0
  6  7  2  0
  7  8  1  0
  8  9  1  0
  8 10  1  0
 10 11  2  0
 11 12  1  0
 12 13  2  0
 13 14  1  0
 14 15  2  0
 15 16  1  0
  8 17  1  0
 17 18  2  0
 17 19  1  0
 19  6  1  0
 15 10  1  0
  1 20  1  0
  1 21  1  0
  1 22  1  0
  2 23  1  0
  2 24  1  0
  3 25  1  0
  3 26  1  0
  9 27  1  0
  9 28  1  0
  9 29  1  0
 11 30  1  0
 12 31  1  0
 13 32  1  0
 14 33  1  0
 16 34  1  0
 16 35  1  0
 19 36  1  0
 19 37  1  0
M  END
>  <Energy>  (96) 
86.531368566538291

>  <compound_id>  (96) 
1439

>  <target_id>  (96) 
1

>  <reference_id>  (96) 
29

>  <inspiration_ids>  (96) 
[5, 29]

>  <energy_score>  (96) 
-32.712858874006145

>  <distance_score>  (96) 
3.159235625752987

>  <path>  (96) 
/opt/xchem-fragalysis-2/maxwin/BulkDock/SCRATCH/505732/C1439-P29/C1439-P29.minimised.mol

>  <scratch_subdir>  (96) 
/opt/xchem-fragalysis-2/maxwin/BulkDock/SCRATCH/505732/C1439-P29

>  <fragmenstein_runtime>  (96) 
22.437458992004395

>  <fragmenstein_outcome>  (96) 
too moved

>  <fragmenstein_mode>  (96) 
expansion

>  <fragmenstein_error>  (96) 


$$$$
C641-P5
     RDKit          3D

 43 45  0  0  0  0  0  0  0  0999 V2000
   14.9488    3.6124   16.9245 C   0  0  0  0  0  0  0  0  0  0  0  0
   13.9013    2.6455   16.4982 C   0  0  0  0  0  0  0  0  0  0  0  0
   14.0496    1.3591   16.5362 N   0  0  0  0  0  0  0  0  0  0  0  0
   12.8805    0.8175   16.0428 N   0  0  0  0  0  0  0  0  0  0  0  0
   12.7633   -0.5924   15.9919 C   0  0  0  0  0  0  0  0  0  0  0  0
   11.6921   -1.2181   15.3415 C   0  0  0  0  0  0  0  0  0  0  0  0
   11.5613   -2.6074   15.3684 C   0  0  0  0  0  0  0  0  0  0  0  0
   12.4941   -3.3804   16.0570 C   0  0  0  0  0  0  0  0  0  0  0  0
   13.5991   -2.7853   16.6551 C   0  0  0  0  0  0  0  0  0  0  0  0
   14.5216   -3.6513   17.3930 N   0  0  0  0  0  0  0  0  0  0  0  0
   16.0402   -3.5752   17.2179 S   0  0  0  0  0  0  0  0  0  0  0  0
   16.2945   -4.8132   16.1037 N   0  0  0  0  0  0  0  0  0  0  0  0
   16.8165   -2.4956   16.6589 O   0  0  0  0  0  0  0  0  0  0  0  0
   16.7586   -4.0136   18.7771 C   0  0  0  0  0  0  0  0  0  0  0  0
   16.1982   -3.4360   19.9273 C   0  0  0  0  0  0  0  0  0  0  0  0
   16.7062   -3.7477   21.1876 C   0  0  0  0  0  0  0  0  0  0  0  0
   17.7805   -4.6259   21.3032 C   0  0  0  0  0  0  0  0  0  0  0  0
   18.3405   -5.2015   20.1607 C   0  0  0  0  0  0  0  0  0  0  0  0
   17.8179   -4.9178   18.8919 C   0  0  0  0  0  0  0  0  0  0  0  0
   18.4079   -5.4531   17.7810 O   0  0  0  0  0  0  0  0  0  0  0  0
   18.3400   -6.8777   17.7729 C   0  0  0  0  0  0  0  0  0  0  0  0
   18.4776   -7.2717   16.4812 F   0  0  0  0  0  0  0  0  0  0  0  0
   19.4145   -7.3656   18.4416 F   0  0  0  0  0  0  0  0  0  0  0  0
   13.7263   -1.3973   16.6302 C   0  0  0  0  0  0  0  0  0  0  0  0
   11.9074    1.7764   15.7165 C   0  0  0  0  0  0  0  0  0  0  0  0
   10.7522    1.6460   15.3432 O   0  0  0  0  0  0  0  0  0  0  0  0
   12.5751    3.0938   15.9794 C   0  0  0  0  0  0  0  0  0  0  0  0
   15.8388    3.0826   17.2739 H   0  0  0  0  0  0  0  0  0  0  0  0
   15.2179    4.2508   16.0791 H   0  0  0  0  0  0  0  0  0  0  0  0
   14.5589    4.2347   17.7341 H   0  0  0  0  0  0  0  0  0  0  0  0
   10.9445   -0.6506   14.7905 H   0  0  0  0  0  0  0  0  0  0  0  0
   10.7256   -3.0821   14.8593 H   0  0  0  0  0  0  0  0  0  0  0  0
   12.3617   -4.4550   16.1360 H   0  0  0  0  0  0  0  0  0  0  0  0
   15.7221   -4.5550   15.3083 H   0  0  0  0  0  0  0  0  0  0  0  0
   17.2459   -4.6575   15.7800 H   0  0  0  0  0  0  0  0  0  0  0  0
   15.3595   -2.7464   19.8469 H   0  0  0  0  0  0  0  0  0  0  0  0
   16.2677   -3.2985   22.0760 H   0  0  0  0  0  0  0  0  0  0  0  0
   18.1915   -4.8549   22.2838 H   0  0  0  0  0  0  0  0  0  0  0  0
   19.2032   -5.8549   20.2738 H   0  0  0  0  0  0  0  0  0  0  0  0
   17.4088   -7.2882   18.1802 H   0  0  0  0  0  0  0  0  0  0  0  0
   14.5658   -0.9358   17.1424 H   0  0  0  0  0  0  0  0  0  0  0  0
   12.6945    3.6623   15.0555 H   0  0  0  0  0  0  0  0  0  0  0  0
   12.0375    3.6584   16.7429 H   0  0  0  0  0  0  0  0  0  0  0  0
  1  2  1  0
  2  3  2  0
  3  4  1  0
  4  5  1  0
  5  6  2  0
  6  7  1  0
  7  8  2  0
  8  9  1  0
  9 10  1  0
 10 11  2  0
 11 12  1  0
 11 13  2  0
 11 14  1  0
 14 15  2  0
 15 16  1  0
 16 17  2  0
 17 18  1  0
 18 19  2  0
 19 20  1  0
 20 21  1  0
 21 22  1  0
 21 23  1  0
  9 24  2  0
  4 25  1  0
 25 26  2  0
 25 27  1  0
 27  2  1  0
 24  5  1  0
 19 14  1  0
  1 28  1  0
  1 29  1  0
  1 30  1  0
  6 31  1  0
  7 32  1  0
  8 33  1  0
 12 34  1  0
 12 35  1  0
 15 36  1  0
 16 37  1  0
 17 38  1  0
 18 39  1  0
 21 40  1  0
 24 41  1  0
 27 42  1  0
 27 43  1  0
M  END
>  <Energy>  (97) 
-50.086404837503807

>  <compound_id>  (97) 
641

>  <target_id>  (97) 
1

>  <reference_id>  (97) 
5

>  <inspiration_ids>  (97) 
[5, 36]

>  <energy_score>  (97) 
-74.70256631313413

>  <distance_score>  (97) 
0.9162647066087514

>  <path>  (97) 
/opt/xchem-fragalysis-2/maxwin/BulkDock/SCRATCH/505732/C641-P5/C641-P5.minimised.mol

>  <scratch_subdir>  (97) 
/opt/xchem-fragalysis-2/maxwin/BulkDock/SCRATCH/505732/C641-P5

>  <fragmenstein_runtime>  (97) 
1.803098201751709

>  <fragmenstein_outcome>  (97) 
acceptable

>  <fragmenstein_mode>  (97) 
expansion

>  <fragmenstein_error>  (97) 


$$$$
C641-P36
     RDKit          3D

 43 45  0  0  0  0  0  0  0  0999 V2000
   14.9731    3.6438   16.8824 C   0  0  0  0  0  0  0  0  0  0  0  0
   13.9013    2.6904   16.4873 C   0  0  0  0  0  0  0  0  0  0  0  0
   14.0400    1.4026   16.5067 N   0  0  0  0  0  0  0  0  0  0  0  0
   12.8476    0.8773   16.0541 N   0  0  0  0  0  0  0  0  0  0  0  0
   12.7124   -0.5293   15.9940 C   0  0  0  0  0  0  0  0  0  0  0  0
   11.6255   -1.1358   15.3521 C   0  0  0  0  0  0  0  0  0  0  0  0
   11.4767   -2.5233   15.3702 C   0  0  0  0  0  0  0  0  0  0  0  0
   12.4037   -3.3135   16.0460 C   0  0  0  0  0  0  0  0  0  0  0  0
   13.5227   -2.7344   16.6335 C   0  0  0  0  0  0  0  0  0  0  0  0
   14.4614   -3.6132   17.3377 N   0  0  0  0  0  0  0  0  0  0  0  0
   15.9616   -3.5842   17.0240 S   0  0  0  0  0  0  0  0  0  0  0  0
   16.0303   -4.9420   16.0309 N   0  0  0  0  0  0  0  0  0  0  0  0
   16.6856   -2.5952   16.2648 O   0  0  0  0  0  0  0  0  0  0  0  0
   16.8434   -3.9161   18.5188 C   0  0  0  0  0  0  0  0  0  0  0  0
   16.3098   -3.4343   19.7232 C   0  0  0  0  0  0  0  0  0  0  0  0
   16.9692   -3.6786   20.9278 C   0  0  0  0  0  0  0  0  0  0  0  0
   18.1658   -4.3920   20.9323 C   0  0  0  0  0  0  0  0  0  0  0  0
   18.7002   -4.8698   19.7343 C   0  0  0  0  0  0  0  0  0  0  0  0
   18.0303   -4.6537   18.5238 C   0  0  0  0  0  0  0  0  0  0  0  0
   18.5984   -5.0883   17.3583 O   0  0  0  0  0  0  0  0  0  0  0  0
   18.5967   -6.5109   17.2800 C   0  0  0  0  0  0  0  0  0  0  0  0
   18.7476   -6.8445   15.9723 F   0  0  0  0  0  0  0  0  0  0  0  0
   19.6919   -6.9845   17.9263 F   0  0  0  0  0  0  0  0  0  0  0  0
   13.6729   -1.3494   16.6125 C   0  0  0  0  0  0  0  0  0  0  0  0
   11.8671    1.8462   15.7877 C   0  0  0  0  0  0  0  0  0  0  0  0
   10.6914    1.7258   15.4824 O   0  0  0  0  0  0  0  0  0  0  0  0
   12.5579    3.1553   16.0296 C   0  0  0  0  0  0  0  0  0  0  0  0
   15.8747    3.1031   17.1817 H   0  0  0  0  0  0  0  0  0  0  0  0
   15.2077    4.2956   16.0369 H   0  0  0  0  0  0  0  0  0  0  0  0
   14.6242    4.2539   17.7195 H   0  0  0  0  0  0  0  0  0  0  0  0
   10.8818   -0.5533   14.8102 H   0  0  0  0  0  0  0  0  0  0  0  0
   10.6303   -2.9806   14.8623 H   0  0  0  0  0  0  0  0  0  0  0  0
   12.2539   -4.3858   16.1194 H   0  0  0  0  0  0  0  0  0  0  0  0
   15.0612   -5.0547   15.7523 H   0  0  0  0  0  0  0  0  0  0  0  0
   16.4979   -4.6000   15.1936 H   0  0  0  0  0  0  0  0  0  0  0  0
   15.3782   -2.8712   19.7323 H   0  0  0  0  0  0  0  0  0  0  0  0
   16.5522   -3.3039   21.8600 H   0  0  0  0  0  0  0  0  0  0  0  0
   18.6906   -4.5666   21.8687 H   0  0  0  0  0  0  0  0  0  0  0  0
   19.6531   -5.3948   19.7528 H   0  0  0  0  0  0  0  0  0  0  0  0
   17.6861   -6.9820   17.6689 H   0  0  0  0  0  0  0  0  0  0  0  0
   14.5290   -0.9039   17.1112 H   0  0  0  0  0  0  0  0  0  0  0  0
   12.6417    3.7302   15.1059 H   0  0  0  0  0  0  0  0  0  0  0  0
   12.0598    3.7180   16.8212 H   0  0  0  0  0  0  0  0  0  0  0  0
  1  2  1  0
  2  3  2  0
  3  4  1  0
  4  5  1  0
  5  6  2  0
  6  7  1  0
  7  8  2  0
  8  9  1  0
  9 10  1  0
 10 11  2  0
 11 12  1  0
 11 13  2  0
 11 14  1  0
 14 15  2  0
 15 16  1  0
 16 17  2  0
 17 18  1  0
 18 19  2  0
 19 20  1  0
 20 21  1  0
 21 22  1  0
 21 23  1  0
  9 24  2  0
  4 25  1  0
 25 26  2  0
 25 27  1  0
 27  2  1  0
 24  5  1  0
 19 14  1  0
  1 28  1  0
  1 29  1  0
  1 30  1  0
  6 31  1  0
  7 32  1  0
  8 33  1  0
 12 34  1  0
 12 35  1  0
 15 36  1  0
 16 37  1  0
 17 38  1  0
 18 39  1  0
 21 40  1  0
 24 41  1  0
 27 42  1  0
 27 43  1  0
M  END
>  <Energy>  (98) 
-51.184640729424181

>  <compound_id>  (98) 
641

>  <target_id>  (98) 
1

>  <reference_id>  (98) 
36

>  <inspiration_ids>  (98) 
[5, 36]

>  <energy_score>  (98) 
-75.80080220505623

>  <distance_score>  (98) 
0.8768584783595909

>  <path>  (98) 
/opt/xchem-fragalysis-2/maxwin/BulkDock/SCRATCH/505732/C641-P36/C641-P36.minimised.mol

>  <scratch_subdir>  (98) 
/opt/xchem-fragalysis-2/maxwin/BulkDock/SCRATCH/505732/C641-P36

>  <fragmenstein_runtime>  (98) 
1.7840840816497803

>  <fragmenstein_outcome>  (98) 
acceptable

>  <fragmenstein_mode>  (98) 
expansion

>  <fragmenstein_error>  (98) 


$$$$
C1442-P5
     RDKit          3D

 29 30  0  0  0  0  0  0  0  0999 V2000
   15.0070    3.8089   16.4827 C   0  0  0  0  0  0  0  0  0  0  0  0
   13.9113    2.8224   16.2883 C   0  0  0  0  0  0  0  0  0  0  0  0
   14.0938    1.5414   16.2886 N   0  0  0  0  0  0  0  0  0  0  0  0
   12.8558    0.9631   16.1159 N   0  0  0  0  0  0  0  0  0  0  0  0
   12.7563   -0.4594   16.1419 C   0  0  0  0  0  0  0  0  0  0  0  0
   13.6570   -1.2422   16.9161 C   0  0  0  0  0  0  0  0  0  0  0  0
   14.7174   -0.6413   17.8005 C   0  0  0  0  0  0  0  0  0  0  0  0
   13.5466   -2.6502   16.9415 C   0  0  0  0  0  0  0  0  0  0  0  0
   12.5508   -3.3063   16.2364 C   0  0  0  0  0  0  0  0  0  0  0  0
   11.6639   -2.5615   15.4785 C   0  0  0  0  0  0  0  0  0  0  0  0
   11.7535   -1.1531   15.4434 C   0  0  0  0  0  0  0  0  0  0  0  0
   10.8180   -0.4970   14.5218 C   0  0  0  0  0  0  0  0  0  0  0  0
   11.0924    0.2466   13.5978 O   0  0  0  0  0  0  0  0  0  0  0  0
    9.5672   -0.9273   14.7992 O   0  0  0  0  0  0  0  0  0  0  0  0
   11.8113    1.9045   16.0298 C   0  0  0  0  0  0  0  0  0  0  0  0
   10.5999    1.7516   15.9930 O   0  0  0  0  0  0  0  0  0  0  0  0
   12.4947    3.2378   16.0842 C   0  0  0  0  0  0  0  0  0  0  0  0
   15.9661    3.2978   16.5995 H   0  0  0  0  0  0  0  0  0  0  0  0
   15.0554    4.4722   15.6153 H   0  0  0  0  0  0  0  0  0  0  0  0
   14.8042    4.4031   17.3774 H   0  0  0  0  0  0  0  0  0  0  0  0
   15.5642   -0.2879   17.2047 H   0  0  0  0  0  0  0  0  0  0  0  0
   14.3082    0.1668   18.4153 H   0  0  0  0  0  0  0  0  0  0  0  0
   15.1114   -1.3812   18.5072 H   0  0  0  0  0  0  0  0  0  0  0  0
   14.2355   -3.2426   17.5421 H   0  0  0  0  0  0  0  0  0  0  0  0
   12.4695   -4.3889   16.2815 H   0  0  0  0  0  0  0  0  0  0  0  0
   10.9040   -3.0809   14.8970 H   0  0  0  0  0  0  0  0  0  0  0  0
    9.1860   -0.9936   13.8861 H   0  0  0  0  0  0  0  0  0  0  0  0
   12.1428    3.8233   16.9350 H   0  0  0  0  0  0  0  0  0  0  0  0
   12.3805    3.7746   15.1410 H   0  0  0  0  0  0  0  0  0  0  0  0
  1  2  1  0
  2  3  2  0
  3  4  1  0
  4  5  1  0
  5  6  2  0
  6  7  1  0
  6  8  1  0
  8  9  2  0
  9 10  1  0
 10 11  2  0
 11 12  1  0
 12 13  2  0
 12 14  1  0
  4 15  1  0
 15 16  2  0
 15 17  1  0
 17  2  1  0
 11  5  1  0
  1 18  1  0
  1 19  1  0
  1 20  1  0
  7 21  1  0
  7 22  1  0
  7 23  1  0
  8 24  1  0
  9 25  1  0
 10 26  1  0
 14 27  1  0
 17 28  1  0
 17 29  1  0
M  END
>  <Energy>  (99) 
57.814734481261361

>  <compound_id>  (99) 
1442

>  <target_id>  (99) 
1

>  <reference_id>  (99) 
5

>  <inspiration_ids>  (99) 
[5, 55]

>  <energy_score>  (99) 
-30.249960045575783

>  <distance_score>  (99) 
0.8354506870421557

>  <path>  (99) 
/opt/xchem-fragalysis-2/maxwin/BulkDock/SCRATCH/505732/C1442-P5/C1442-P5.minimised.mol

>  <scratch_subdir>  (99) 
/opt/xchem-fragalysis-2/maxwin/BulkDock/SCRATCH/505732/C1442-P5

>  <fragmenstein_runtime>  (99) 
1.4569571018218994

>  <fragmenstein_outcome>  (99) 
acceptable

>  <fragmenstein_mode>  (99) 
expansion

>  <fragmenstein_error>  (99) 


$$$$
C1442-P55
     RDKit          3D

 29 30  0  0  0  0  0  0  0  0999 V2000
   15.0240    3.8327   16.4899 C   0  0  0  0  0  0  0  0  0  0  0  0
   13.9303    2.8438   16.2983 C   0  0  0  0  0  0  0  0  0  0  0  0
   14.1132    1.5632   16.3176 N   0  0  0  0  0  0  0  0  0  0  0  0
   12.8776    0.9815   16.1399 N   0  0  0  0  0  0  0  0  0  0  0  0
   12.7828   -0.4416   16.1732 C   0  0  0  0  0  0  0  0  0  0  0  0
   13.6852   -1.2192   16.9504 C   0  0  0  0  0  0  0  0  0  0  0  0
   14.7480   -0.6132   17.8281 C   0  0  0  0  0  0  0  0  0  0  0  0
   13.5728   -2.6269   16.9888 C   0  0  0  0  0  0  0  0  0  0  0  0
   12.5742   -3.2881   16.2929 C   0  0  0  0  0  0  0  0  0  0  0  0
   11.6899   -2.5500   15.5263 C   0  0  0  0  0  0  0  0  0  0  0  0
   11.7828   -1.1424   15.4790 C   0  0  0  0  0  0  0  0  0  0  0  0
   10.8516   -0.4937   14.5506 C   0  0  0  0  0  0  0  0  0  0  0  0
   11.1323    0.2327   13.6150 O   0  0  0  0  0  0  0  0  0  0  0  0
    9.5988   -0.9098   14.8395 O   0  0  0  0  0  0  0  0  0  0  0  0
   11.8337    1.9221   16.0276 C   0  0  0  0  0  0  0  0  0  0  0  0
   10.6227    1.7705   15.9729 O   0  0  0  0  0  0  0  0  0  0  0  0
   12.5162    3.2559   16.0742 C   0  0  0  0  0  0  0  0  0  0  0  0
   15.9817    3.3233   16.6248 H   0  0  0  0  0  0  0  0  0  0  0  0
   15.0821    4.4831   15.6133 H   0  0  0  0  0  0  0  0  0  0  0  0
   14.8117    4.4402   17.3734 H   0  0  0  0  0  0  0  0  0  0  0  0
   15.5905   -0.2578   17.2275 H   0  0  0  0  0  0  0  0  0  0  0  0
   14.3387    0.1942   18.4439 H   0  0  0  0  0  0  0  0  0  0  0  0
   15.1490   -1.3503   18.5339 H   0  0  0  0  0  0  0  0  0  0  0  0
   14.2608   -3.2148   17.5949 H   0  0  0  0  0  0  0  0  0  0  0  0
   12.4893   -4.3693   16.3532 H   0  0  0  0  0  0  0  0  0  0  0  0
   10.9286   -3.0732   14.9498 H   0  0  0  0  0  0  0  0  0  0  0  0
    9.2105   -0.9719   13.9293 H   0  0  0  0  0  0  0  0  0  0  0  0
   12.1551    3.8516   16.9140 H   0  0  0  0  0  0  0  0  0  0  0  0
   12.4123    3.7816   15.1236 H   0  0  0  0  0  0  0  0  0  0  0  0
  1  2  1  0
  2  3  2  0
  3  4  1  0
  4  5  1  0
  5  6  2  0
  6  7  1  0
  6  8  1  0
  8  9  2  0
  9 10  1  0
 10 11  2  0
 11 12  1  0
 12 13  2  0
 12 14  1  0
  4 15  1  0
 15 16  2  0
 15 17  1  0
 17  2  1  0
 11  5  1  0
  1 18  1  0
  1 19  1  0
  1 20  1  0
  7 21  1  0
  7 22  1  0
  7 23  1  0
  8 24  1  0
  9 25  1  0
 10 26  1  0
 14 27  1  0
 17 28  1  0
 17 29  1  0
M  END
>  <Energy>  (100) 
57.729626150550715

>  <compound_id>  (100) 
1442

>  <target_id>  (100) 
1

>  <reference_id>  (100) 
55

>  <inspiration_ids>  (100) 
[5, 55]

>  <energy_score>  (100) 
-30.335068376286735

>  <distance_score>  (100) 
0.8507300973615531

>  <path>  (100) 
/opt/xchem-fragalysis-2/maxwin/BulkDock/SCRATCH/505732/C1442-P55/C1442-P55.minimised.mol

>  <scratch_subdir>  (100) 
/opt/xchem-fragalysis-2/maxwin/BulkDock/SCRATCH/505732/C1442-P55

>  <fragmenstein_runtime>  (100) 
1.1008520126342773

>  <fragmenstein_outcome>  (100) 
acceptable

>  <fragmenstein_mode>  (100) 
expansion

>  <fragmenstein_error>  (100) 


$$$$
C1445-P5
     RDKit          3D

 23 24  0  0  0  0  0  0  0  0999 V2000
   15.0657    3.4345   17.0394 C   0  0  0  0  0  0  0  0  0  0  0  0
   13.9648    2.5493   16.5716 C   0  0  0  0  0  0  0  0  0  0  0  0
   14.0185    1.2542   16.5923 N   0  0  0  0  0  0  0  0  0  0  0  0
   12.8277    0.8112   16.0531 N   0  0  0  0  0  0  0  0  0  0  0  0
   12.5930   -0.5818   15.9754 C   0  0  0  0  0  0  0  0  0  0  0  0
   11.5163   -1.0967   15.2435 C   0  0  0  0  0  0  0  0  0  0  0  0
   11.2539   -2.4664   15.2290 C   0  0  0  0  0  0  0  0  0  0  0  0
   12.0434   -3.3361   15.9692 C   0  0  0  0  0  0  0  0  0  0  0  0
   13.1303   -2.8442   16.6770 C   0  0  0  0  0  0  0  0  0  0  0  0
   14.0720   -3.9379   17.6083 Cl  0  0  0  0  0  0  0  0  0  0  0  0
   13.4238   -1.4806   16.6655 C   0  0  0  0  0  0  0  0  0  0  0  0
   11.9372    1.8450   15.7169 C   0  0  0  0  0  0  0  0  0  0  0  0
   10.7875    1.8074   15.3071 O   0  0  0  0  0  0  0  0  0  0  0  0
   12.6904    3.1033   16.0248 C   0  0  0  0  0  0  0  0  0  0  0  0
   14.6978    4.0749   17.8452 H   0  0  0  0  0  0  0  0  0  0  0  0
   15.4044    4.0605   16.2099 H   0  0  0  0  0  0  0  0  0  0  0  0
   15.9048    2.8385   17.4073 H   0  0  0  0  0  0  0  0  0  0  0  0
   10.8649   -0.4568   14.6514 H   0  0  0  0  0  0  0  0  0  0  0  0
   10.4157   -2.8457   14.6518 H   0  0  0  0  0  0  0  0  0  0  0  0
   11.7984   -4.3923   16.0062 H   0  0  0  0  0  0  0  0  0  0  0  0
   14.2720   -1.1163   17.2391 H   0  0  0  0  0  0  0  0  0  0  0  0
   12.1733    3.6920   16.7844 H   0  0  0  0  0  0  0  0  0  0  0  0
   12.8783    3.6783   15.1165 H   0  0  0  0  0  0  0  0  0  0  0  0
  1  2  1  0
  2  3  2  0
  3  4  1  0
  4  5  1  0
  5  6  2  0
  6  7  1  0
  7  8  2  0
  8  9  1  0
  9 10  1  0
  9 11  2  0
  4 12  1  0
 12 13  2  0
 12 14  1  0
 14  2  1  0
 11  5  1  0
  1 15  1  0
  1 16  1  0
  1 17  1  0
  6 18  1  0
  7 19  1  0
  8 20  1  0
 11 21  1  0
 14 22  1  0
 14 23  1  0
M  END
>  <Energy>  (101) 
35.095135387604948

>  <compound_id>  (101) 
1445

>  <target_id>  (101) 
1

>  <reference_id>  (101) 
5

>  <inspiration_ids>  (101) 
[5, 63]

>  <energy_score>  (101) 
-32.75427844554835

>  <distance_score>  (101) 
0.3933409363287045

>  <path>  (101) 
/opt/xchem-fragalysis-2/maxwin/BulkDock/SCRATCH/505732/C1445-P5/C1445-P5.minimised.mol

>  <scratch_subdir>  (101) 
/opt/xchem-fragalysis-2/maxwin/BulkDock/SCRATCH/505732/C1445-P5

>  <fragmenstein_runtime>  (101) 
0.785686731338501

>  <fragmenstein_outcome>  (101) 
acceptable

>  <fragmenstein_mode>  (101) 
expansion

>  <fragmenstein_error>  (101) 


$$$$
C1445-P63
     RDKit          3D

 23 24  0  0  0  0  0  0  0  0999 V2000
   15.1118    3.3928   17.0358 C   0  0  0  0  0  0  0  0  0  0  0  0
   14.0042    2.5084   16.5824 C   0  0  0  0  0  0  0  0  0  0  0  0
   14.0523    1.2131   16.6121 N   0  0  0  0  0  0  0  0  0  0  0  0
   12.8557    0.7717   16.0850 N   0  0  0  0  0  0  0  0  0  0  0  0
   12.6146   -0.6212   16.0153 C   0  0  0  0  0  0  0  0  0  0  0  0
   11.5236   -1.1298   15.3000 C   0  0  0  0  0  0  0  0  0  0  0  0
   11.2481   -2.4962   15.2959 C   0  0  0  0  0  0  0  0  0  0  0  0
   12.0398   -3.3680   16.0298 C   0  0  0  0  0  0  0  0  0  0  0  0
   13.1497   -2.8883   16.7085 C   0  0  0  0  0  0  0  0  0  0  0  0
   14.1105   -4.0062   17.5942 Cl  0  0  0  0  0  0  0  0  0  0  0  0
   13.4531   -1.5264   16.6907 C   0  0  0  0  0  0  0  0  0  0  0  0
   11.9680    1.8080   15.7460 C   0  0  0  0  0  0  0  0  0  0  0  0
   10.8161    1.7750   15.3417 O   0  0  0  0  0  0  0  0  0  0  0  0
   12.7280    3.0646   16.0427 C   0  0  0  0  0  0  0  0  0  0  0  0
   15.9526    2.7962   17.3989 H   0  0  0  0  0  0  0  0  0  0  0  0
   14.7531    4.0380   17.8420 H   0  0  0  0  0  0  0  0  0  0  0  0
   15.4446    4.0140   16.2003 H   0  0  0  0  0  0  0  0  0  0  0  0
   10.8693   -0.4878   14.7139 H   0  0  0  0  0  0  0  0  0  0  0  0
   10.3984   -2.8735   14.7333 H   0  0  0  0  0  0  0  0  0  0  0  0
   11.7815   -4.4199   16.0810 H   0  0  0  0  0  0  0  0  0  0  0  0
   14.3172   -1.1684   17.2440 H   0  0  0  0  0  0  0  0  0  0  0  0
   12.2186    3.6579   16.8041 H   0  0  0  0  0  0  0  0  0  0  0  0
   12.9110    3.6353   15.1307 H   0  0  0  0  0  0  0  0  0  0  0  0
  1  2  1  0
  2  3  2  0
  3  4  1  0
  4  5  1  0
  5  6  2  0
  6  7  1  0
  7  8  2  0
  8  9  1  0
  9 10  1  0
  9 11  2  0
  4 12  1  0
 12 13  2  0
 12 14  1  0
 14  2  1  0
 11  5  1  0
  1 15  1  0
  1 16  1  0
  1 17  1  0
  6 18  1  0
  7 19  1  0
  8 20  1  0
 11 21  1  0
 14 22  1  0
 14 23  1  0
M  END
>  <Energy>  (102) 
35.132473390411043

>  <compound_id>  (102) 
1445

>  <target_id>  (102) 
1

>  <reference_id>  (102) 
63

>  <inspiration_ids>  (102) 
[5, 63]

>  <energy_score>  (102) 
-32.71694044274186

>  <distance_score>  (102) 
0.40027595802441746

>  <path>  (102) 
/opt/xchem-fragalysis-2/maxwin/BulkDock/SCRATCH/505732/C1445-P63/C1445-P63.minimised.mol

>  <scratch_subdir>  (102) 
/opt/xchem-fragalysis-2/maxwin/BulkDock/SCRATCH/505732/C1445-P63

>  <fragmenstein_runtime>  (102) 
0.8561074733734131

>  <fragmenstein_outcome>  (102) 
acceptable

>  <fragmenstein_mode>  (102) 
expansion

>  <fragmenstein_error>  (102) 


$$$$
C1117-P5
     RDKit          3D

 59 61  0  0  0  0  0  0  0  0999 V2000
   14.5107    4.2630   16.0685 C   0  0  0  0  0  0  0  0  0  0  0  0
   13.5195    3.1586   15.9384 C   0  0  0  0  0  0  0  0  0  0  0  0
   13.5054    1.9503   16.5218 C   0  0  0  0  0  0  0  0  0  0  0  0
   14.3726    1.5854   17.6839 C   0  0  0  0  0  0  0  0  0  0  0  0
   14.4623    2.6119   18.8371 C   0  0  0  0  0  0  0  0  0  0  0  0
   15.6716    2.3627   19.6533 N   0  0  0  0  0  0  0  0  0  0  0  0
   15.6210    1.1909   20.6380 S   0  0  0  0  0  0  0  0  0  0  0  0
   16.8637    1.4187   21.8605 C   0  0  0  0  0  0  0  0  0  0  0  0
   14.4211    0.7543   21.3089 O   0  0  0  0  0  0  0  0  0  0  0  0
   16.1160   -0.1371   19.7101 N   0  0  0  0  0  0  0  0  0  0  0  0
   15.4350   -1.4229   19.8291 C   0  0  0  0  0  0  0  0  0  0  0  0
   16.1814   -2.6213   19.2600 C   0  0  0  0  0  0  0  0  0  0  0  0
   16.7509   -2.3740   17.8706 C   0  0  0  0  0  0  0  0  0  0  0  0
   17.1282   -0.9140   17.6133 C   0  0  0  0  0  0  0  0  0  0  0  0
   18.3281   -0.8233   16.6915 C   0  0  0  0  0  0  0  0  0  0  0  0
   17.3351   -0.1002   18.9014 C   0  0  0  0  0  0  0  0  0  0  0  0
   18.5946   -0.5364   19.6965 C   0  0  0  0  0  0  0  0  0  0  0  0
   19.7392    0.2213   19.3055 O   0  0  0  0  0  0  0  0  0  0  0  0
   12.5110    1.1493   15.9497 N   0  0  0  0  0  0  0  0  0  0  0  0
   12.3508   -0.2915   15.9474 C   0  0  0  0  0  0  0  0  0  0  0  0
   13.3011   -1.1606   16.5004 C   0  0  0  0  0  0  0  0  0  0  0  0
   13.1341   -2.5545   16.5232 C   0  0  0  0  0  0  0  0  0  0  0  0
   12.0330   -3.1320   15.9226 C   0  0  0  0  0  0  0  0  0  0  0  0
   11.1183   -2.3134   15.2862 C   0  0  0  0  0  0  0  0  0  0  0  0
   11.2669   -0.9194   15.3123 C   0  0  0  0  0  0  0  0  0  0  0  0
   11.6605    1.9933   15.1920 C   0  0  0  0  0  0  0  0  0  0  0  0
   10.5521    1.7813   14.7207 O   0  0  0  0  0  0  0  0  0  0  0  0
   12.3520    3.3288   15.0318 C   0  0  0  0  0  0  0  0  0  0  0  0
   14.7610    4.6561   15.0768 H   0  0  0  0  0  0  0  0  0  0  0  0
   14.0984    5.0846   16.6619 H   0  0  0  0  0  0  0  0  0  0  0  0
   15.4535    3.9320   16.5131 H   0  0  0  0  0  0  0  0  0  0  0  0
   15.3705    1.3849   17.2874 H   0  0  0  0  0  0  0  0  0  0  0  0
   13.9870    0.6859   18.1622 H   0  0  0  0  0  0  0  0  0  0  0  0
   14.5358    3.6409   18.4861 H   0  0  0  0  0  0  0  0  0  0  0  0
   13.5583    2.5777   19.4549 H   0  0  0  0  0  0  0  0  0  0  0  0
   17.7960    1.7358   21.3909 H   0  0  0  0  0  0  0  0  0  0  0  0
   17.0003    0.4853   22.4103 H   0  0  0  0  0  0  0  0  0  0  0  0
   16.5228    2.1941   22.5511 H   0  0  0  0  0  0  0  0  0  0  0  0
   15.2332   -1.6408   20.8850 H   0  0  0  0  0  0  0  0  0  0  0  0
   14.4617   -1.3485   19.3352 H   0  0  0  0  0  0  0  0  0  0  0  0
   16.9982   -2.8866   19.9426 H   0  0  0  0  0  0  0  0  0  0  0  0
   15.5211   -3.4965   19.2367 H   0  0  0  0  0  0  0  0  0  0  0  0
   16.0385   -2.6945   17.1049 H   0  0  0  0  0  0  0  0  0  0  0  0
   17.6194   -3.0327   17.7408 H   0  0  0  0  0  0  0  0  0  0  0  0
   16.3030   -0.4639   17.0583 H   0  0  0  0  0  0  0  0  0  0  0  0
   18.1068   -1.2969   15.7282 H   0  0  0  0  0  0  0  0  0  0  0  0
   19.2101   -1.3245   17.1027 H   0  0  0  0  0  0  0  0  0  0  0  0
   18.5926    0.2201   16.4888 H   0  0  0  0  0  0  0  0  0  0  0  0
   17.5064    0.9327   18.5737 H   0  0  0  0  0  0  0  0  0  0  0  0
   18.8366   -1.5923   19.5473 H   0  0  0  0  0  0  0  0  0  0  0  0
   18.4766   -0.3953   20.7726 H   0  0  0  0  0  0  0  0  0  0  0  0
   19.5314    1.1637   19.4348 H   0  0  0  0  0  0  0  0  0  0  0  0
   14.2292   -0.7957   16.9043 H   0  0  0  0  0  0  0  0  0  0  0  0
   13.8743   -3.1907   16.9965 H   0  0  0  0  0  0  0  0  0  0  0  0
   11.8931   -4.2074   15.9408 H   0  0  0  0  0  0  0  0  0  0  0  0
   10.2686   -2.7457   14.7644 H   0  0  0  0  0  0  0  0  0  0  0  0
   10.4933   -0.3688   14.7860 H   0  0  0  0  0  0  0  0  0  0  0  0
   12.6534    3.4686   13.9906 H   0  0  0  0  0  0  0  0  0  0  0  0
   11.6932    4.1334   15.3687 H   0  0  0  0  0  0  0  0  0  0  0  0
  1  2  1  0
  2  3  2  0
  3  4  1  0
  4  5  1  0
  5  6  1  0
  6  7  2  0
  7  8  1  0
  7  9  2  0
  7 10  1  0
 10 11  1  0
 11 12  1  0
 12 13  1  0
 13 14  1  0
 14 15  1  0
 14 16  1  0
 16 17  1  0
 17 18  1  0
  3 19  1  0
 19 20  1  0
 20 21  2  0
 21 22  1  0
 22 23  2  0
 23 24  1  0
 24 25  2  0
 19 26  1  0
 26 27  2  0
 26 28  1  0
 28  2  1  0
 16 10  1  0
 25 20  1  0
  1 29  1  0
  1 30  1  0
  1 31  1  0
  4 32  1  0
  4 33  1  0
  5 34  1  0
  5 35  1  0
  8 36  1  0
  8 37  1  0
  8 38  1  0
 11 39  1  0
 11 40  1  0
 12 41  1  0
 12 42  1  0
 13 43  1  0
 13 44  1  0
 14 45  1  0
 15 46  1  0
 15 47  1  0
 15 48  1  0
 16 49  1  0
 17 50  1  0
 17 51  1  0
 18 52  1  0
 21 53  1  0
 22 54  1  0
 23 55  1  0
 24 56  1  0
 25 57  1  0
 28 58  1  0
 28 59  1  0
M  END
>  <Energy>  (103) 
17.792591366778382

>  <compound_id>  (103) 
1117

>  <target_id>  (103) 
1

>  <reference_id>  (103) 
5

>  <inspiration_ids>  (103) 
[5, 71]

>  <energy_score>  (103) 
-64.77315561307498

>  <distance_score>  (103) 
1.4995826665683165

>  <path>  (103) 
/opt/xchem-fragalysis-2/maxwin/BulkDock/SCRATCH/505732/C1117-P5/C1117-P5.minimised.mol

>  <scratch_subdir>  (103) 
/opt/xchem-fragalysis-2/maxwin/BulkDock/SCRATCH/505732/C1117-P5

>  <fragmenstein_runtime>  (103) 
5.149451494216919

>  <fragmenstein_outcome>  (103) 
too moved

>  <fragmenstein_mode>  (103) 
expansion

>  <fragmenstein_error>  (103) 


$$$$
C1117-P71
     RDKit          3D

 59 61  0  0  0  0  0  0  0  0999 V2000
   14.8428    4.1907   16.1046 C   0  0  0  0  0  0  0  0  0  0  0  0
   13.8665    3.1104   15.8089 C   0  0  0  0  0  0  0  0  0  0  0  0
   13.4782    2.0525   16.5350 C   0  0  0  0  0  0  0  0  0  0  0  0
   13.5690    1.9035   18.0297 C   0  0  0  0  0  0  0  0  0  0  0  0
   14.1970    2.9397   18.9773 C   0  0  0  0  0  0  0  0  0  0  0  0
   15.6042    2.6290   19.2919 N   0  0  0  0  0  0  0  0  0  0  0  0
   15.8824    1.4535   20.2363 S   0  0  0  0  0  0  0  0  0  0  0  0
   17.3552    1.7329   21.1592 C   0  0  0  0  0  0  0  0  0  0  0  0
   14.8935    0.9348   21.1547 O   0  0  0  0  0  0  0  0  0  0  0  0
   16.2920    0.1455   19.2128 N   0  0  0  0  0  0  0  0  0  0  0  0
   15.5672   -1.1164   19.4458 C   0  0  0  0  0  0  0  0  0  0  0  0
   16.1536   -2.3848   18.8451 C   0  0  0  0  0  0  0  0  0  0  0  0
   16.6239   -2.1677   17.4252 C   0  0  0  0  0  0  0  0  0  0  0  0
   17.5436   -0.9556   17.3511 C   0  0  0  0  0  0  0  0  0  0  0  0
   18.8303   -1.2213   18.1387 C   0  0  0  0  0  0  0  0  0  0  0  0
   16.8235    0.3297   17.8393 C   0  0  0  0  0  0  0  0  0  0  0  0
   17.7960    1.5353   17.6242 C   0  0  0  0  0  0  0  0  0  0  0  0
   18.3206    1.5563   16.2921 O   0  0  0  0  0  0  0  0  0  0  0  0
   12.5715    1.2731   15.8032 N   0  0  0  0  0  0  0  0  0  0  0  0
   12.2959   -0.1377   15.9018 C   0  0  0  0  0  0  0  0  0  0  0  0
   13.1858   -0.9999   16.5514 C   0  0  0  0  0  0  0  0  0  0  0  0
   13.0030   -2.3912   16.5900 C   0  0  0  0  0  0  0  0  0  0  0  0
   11.9290   -2.9653   15.9388 C   0  0  0  0  0  0  0  0  0  0  0  0
   11.0410   -2.1404   15.2681 C   0  0  0  0  0  0  0  0  0  0  0  0
   11.2160   -0.7478   15.2538 C   0  0  0  0  0  0  0  0  0  0  0  0
   12.0982    2.0343   14.7197 C   0  0  0  0  0  0  0  0  0  0  0  0
   11.1302    1.8460   13.9978 O   0  0  0  0  0  0  0  0  0  0  0  0
   13.0437    3.2078   14.5595 C   0  0  0  0  0  0  0  0  0  0  0  0
   14.3309    5.0926   16.4528 H   0  0  0  0  0  0  0  0  0  0  0  0
   15.5914    3.8906   16.8381 H   0  0  0  0  0  0  0  0  0  0  0  0
   15.3977    4.4480   15.1955 H   0  0  0  0  0  0  0  0  0  0  0  0
   13.8662    0.9029   18.3161 H   0  0  0  0  0  0  0  0  0  0  0  0
   12.5189    1.9910   18.2897 H   0  0  0  0  0  0  0  0  0  0  0  0
   14.1251    3.9538   18.5785 H   0  0  0  0  0  0  0  0  0  0  0  0
   13.6238    2.9669   19.9142 H   0  0  0  0  0  0  0  0  0  0  0  0
   17.6509    0.8009   21.6458 H   0  0  0  0  0  0  0  0  0  0  0  0
   17.1447    2.4888   21.9192 H   0  0  0  0  0  0  0  0  0  0  0  0
   18.1495    2.0840   20.5004 H   0  0  0  0  0  0  0  0  0  0  0  0
   15.5092   -1.3076   20.5249 H   0  0  0  0  0  0  0  0  0  0  0  0
   14.5327   -1.0104   19.1126 H   0  0  0  0  0  0  0  0  0  0  0  0
   16.9891   -2.7297   19.4664 H   0  0  0  0  0  0  0  0  0  0  0  0
   15.4082   -3.1877   18.8740 H   0  0  0  0  0  0  0  0  0  0  0  0
   15.7856   -2.0265   16.7432 H   0  0  0  0  0  0  0  0  0  0  0  0
   17.1462   -3.0660   17.0737 H   0  0  0  0  0  0  0  0  0  0  0  0
   17.8178   -0.8424   16.2943 H   0  0  0  0  0  0  0  0  0  0  0  0
   19.6114   -0.5024   17.8711 H   0  0  0  0  0  0  0  0  0  0  0  0
   19.2323   -2.2132   17.9031 H   0  0  0  0  0  0  0  0  0  0  0  0
   18.6900   -1.1662   19.2225 H   0  0  0  0  0  0  0  0  0  0  0  0
   15.9818    0.4979   17.1600 H   0  0  0  0  0  0  0  0  0  0  0  0
   18.6460    1.4879   18.3105 H   0  0  0  0  0  0  0  0  0  0  0  0
   17.3278    2.5067   17.7602 H   0  0  0  0  0  0  0  0  0  0  0  0
   17.5746    1.7598   15.7012 H   0  0  0  0  0  0  0  0  0  0  0  0
   14.0916   -0.6087   16.9844 H   0  0  0  0  0  0  0  0  0  0  0  0
   13.7113   -3.0281   17.1096 H   0  0  0  0  0  0  0  0  0  0  0  0
   11.7792   -4.0406   15.9544 H   0  0  0  0  0  0  0  0  0  0  0  0
   10.1970   -2.5757   14.7403 H   0  0  0  0  0  0  0  0  0  0  0  0
   10.4767   -0.1761   14.6985 H   0  0  0  0  0  0  0  0  0  0  0  0
   13.6498    3.0799   13.6591 H   0  0  0  0  0  0  0  0  0  0  0  0
   12.4722    4.1393   14.5269 H   0  0  0  0  0  0  0  0  0  0  0  0
  1  2  1  0
  2  3  2  0
  3  4  1  0
  4  5  1  0
  5  6  1  0
  6  7  2  0
  7  8  1  0
  7  9  2  0
  7 10  1  0
 10 11  1  0
 11 12  1  0
 12 13  1  0
 13 14  1  0
 14 15  1  0
 14 16  1  0
 16 17  1  0
 17 18  1  0
  3 19  1  0
 19 20  1  0
 20 21  2  0
 21 22  1  0
 22 23  2  0
 23 24  1  0
 24 25  2  0
 19 26  1  0
 26 27  2  0
 26 28  1  0
 28  2  1  0
 16 10  1  0
 25 20  1  0
  1 29  1  0
  1 30  1  0
  1 31  1  0
  4 32  1  0
  4 33  1  0
  5 34  1  0
  5 35  1  0
  8 36  1  0
  8 37  1  0
  8 38  1  0
 11 39  1  0
 11 40  1  0
 12 41  1  0
 12 42  1  0
 13 43  1  0
 13 44  1  0
 14 45  1  0
 15 46  1  0
 15 47  1  0
 15 48  1  0
 16 49  1  0
 17 50  1  0
 17 51  1  0
 18 52  1  0
 21 53  1  0
 22 54  1  0
 23 55  1  0
 24 56  1  0
 25 57  1  0
 28 58  1  0
 28 59  1  0
M  END
>  <Energy>  (104) 
24.37833204504259

>  <compound_id>  (104) 
1117

>  <target_id>  (104) 
1

>  <reference_id>  (104) 
71

>  <inspiration_ids>  (104) 
[5, 71]

>  <energy_score>  (104) 
-58.18741493481218

>  <distance_score>  (104) 
1.412884127242492

>  <path>  (104) 
/opt/xchem-fragalysis-2/maxwin/BulkDock/SCRATCH/505732/C1117-P71/C1117-P71.minimised.mol

>  <scratch_subdir>  (104) 
/opt/xchem-fragalysis-2/maxwin/BulkDock/SCRATCH/505732/C1117-P71

>  <fragmenstein_runtime>  (104) 
4.616365194320679

>  <fragmenstein_outcome>  (104) 
too moved

>  <fragmenstein_mode>  (104) 
expansion

>  <fragmenstein_error>  (104) 


$$$$
C1448-P5
     RDKit          3D

 51 53  0  0  0  0  0  0  0  0999 V2000
   17.7939   -1.5380    7.8308 C   0  0  0  0  0  0  0  0  0  0  0  0
   16.7982   -0.8471    8.7363 C   0  0  0  0  0  0  0  0  0  0  0  0
   16.4598    0.2596    8.5938 O   0  0  0  0  0  0  0  0  0  0  0  0
   16.3986   -1.8884    9.8115 N   0  0  0  0  0  0  0  0  0  0  0  0
   15.4300   -1.8101   10.8742 C   0  0  0  0  0  0  0  0  0  0  0  0
   15.9333   -0.9569   12.0245 C   0  0  0  0  0  0  0  0  0  0  0  0
   14.8973   -0.6301   13.1002 C   0  0  0  0  0  0  0  0  0  0  0  0
   13.8102    0.3731   12.7263 C   0  0  0  0  0  0  0  0  0  0  0  0
   12.5981   -0.1202   13.3890 N   0  0  0  0  0  0  0  0  0  0  0  0
   12.9839   -1.0905   14.4380 C   0  0  0  0  0  0  0  0  0  0  0  0
   11.8187   -2.0519   14.7235 C   0  0  0  0  0  0  0  0  0  0  0  0
   12.1475   -3.1395   15.7493 C   0  0  0  0  0  0  0  0  0  0  0  0
   13.1170   -2.7168   16.8358 C   0  0  0  0  0  0  0  0  0  0  0  0
   14.3743   -3.1062   16.4870 F   0  0  0  0  0  0  0  0  0  0  0  0
   13.1048   -1.2185   17.0119 C   0  0  0  0  0  0  0  0  0  0  0  0
   13.5609   -0.4775   15.7687 C   0  0  0  0  0  0  0  0  0  0  0  0
   13.3632    0.9662   15.9471 N   0  0  0  0  0  0  0  0  0  0  0  0
   14.4468    1.7185   16.3446 N   0  0  0  0  0  0  0  0  0  0  0  0
   14.0096    2.9243   16.5201 C   0  0  0  0  0  0  0  0  0  0  0  0
   14.8762    4.0549   16.9405 C   0  0  0  0  0  0  0  0  0  0  0  0
   12.5491    3.0908   16.2545 C   0  0  0  0  0  0  0  0  0  0  0  0
   12.1644    1.6807   15.9205 C   0  0  0  0  0  0  0  0  0  0  0  0
   11.0393    1.2869   15.6592 O   0  0  0  0  0  0  0  0  0  0  0  0
   14.1110   -1.7965   13.6754 C   0  0  0  0  0  0  0  0  0  0  0  0
   18.1390   -0.8349    7.0671 H   0  0  0  0  0  0  0  0  0  0  0  0
   17.3185   -2.3883    7.3343 H   0  0  0  0  0  0  0  0  0  0  0  0
   18.6576   -1.8743    8.4110 H   0  0  0  0  0  0  0  0  0  0  0  0
   16.8191   -2.7827    9.5893 H   0  0  0  0  0  0  0  0  0  0  0  0
   15.2066   -2.8312   11.1930 H   0  0  0  0  0  0  0  0  0  0  0  0
   14.5364   -1.3600   10.4521 H   0  0  0  0  0  0  0  0  0  0  0  0
   16.3417   -0.0138   11.6380 H   0  0  0  0  0  0  0  0  0  0  0  0
   16.7782   -1.4778   12.4944 H   0  0  0  0  0  0  0  0  0  0  0  0
   15.4841   -0.1694   13.9066 H   0  0  0  0  0  0  0  0  0  0  0  0
   13.6415    0.4376   11.6482 H   0  0  0  0  0  0  0  0  0  0  0  0
   14.0712    1.3748   13.0846 H   0  0  0  0  0  0  0  0  0  0  0  0
   12.0136    0.6230   13.7648 H   0  0  0  0  0  0  0  0  0  0  0  0
   11.4833   -2.5430   13.8028 H   0  0  0  0  0  0  0  0  0  0  0  0
   10.9585   -1.4757   15.0901 H   0  0  0  0  0  0  0  0  0  0  0  0
   12.5725   -3.9968   15.2454 H   0  0  0  0  0  0  0  0  0  0  0  0
   11.2110   -3.4826   16.1916 H   0  0  0  0  0  0  0  0  0  0  0  0
   12.8826   -3.2301   17.7723 H   0  0  0  0  0  0  0  0  0  0  0  0
   12.0863   -0.9058   17.2205 H   0  0  0  0  0  0  0  0  0  0  0  0
   13.7387   -0.9305   17.8584 H   0  0  0  0  0  0  0  0  0  0  0  0
   14.6514   -0.6028   15.7598 H   0  0  0  0  0  0  0  0  0  0  0  0
   14.4965    4.4736   17.8761 H   0  0  0  0  0  0  0  0  0  0  0  0
   15.9047    3.7159   17.0891 H   0  0  0  0  0  0  0  0  0  0  0  0
   14.8602    4.8294   16.1693 H   0  0  0  0  0  0  0  0  0  0  0  0
   12.3886    3.7506   15.4000 H   0  0  0  0  0  0  0  0  0  0  0  0
   12.0325    3.4425   17.1459 H   0  0  0  0  0  0  0  0  0  0  0  0
   13.7065   -2.4300   12.8793 H   0  0  0  0  0  0  0  0  0  0  0  0
   14.7537   -2.4148   14.3066 H   0  0  0  0  0  0  0  0  0  0  0  0
  1  2  1  0
  2  3  2  0
  2  4  1  0
  4  5  1  0
  5  6  1  0
  6  7  1  0
  7  8  1  0
  8  9  1  0
  9 10  1  0
 10 11  1  0
 11 12  1  0
 12 13  1  0
 13 14  1  0
 13 15  1  0
 15 16  1  0
 16 17  1  0
 17 18  1  0
 18 19  2  0
 19 20  1  0
 19 21  1  0
 21 22  1  0
 22 23  2  0
 10 24  1  0
 24  7  1  0
 16 10  1  0
 22 17  1  0
  1 25  1  0
  1 26  1  0
  1 27  1  0
  4 28  1  0
  5 29  1  0
  5 30  1  0
  6 31  1  0
  6 32  1  0
  7 33  1  0
  8 34  1  0
  8 35  1  0
  9 36  1  0
 11 37  1  0
 11 38  1  0
 12 39  1  0
 12 40  1  0
 13 41  1  0
 15 42  1  0
 15 43  1  0
 16 44  1  0
 20 45  1  0
 20 46  1  0
 20 47  1  0
 21 48  1  0
 21 49  1  0
 24 50  1  0
 24 51  1  0
M  END
>  <Energy>  (105) 
52.546539238007853

>  <compound_id>  (105) 
1448

>  <target_id>  (105) 
1

>  <reference_id>  (105) 
5

>  <inspiration_ids>  (105) 
[5, 81]

>  <energy_score>  (105) 
-28.781722551957472

>  <distance_score>  (105) 
1.8916429803911732

>  <path>  (105) 
/opt/xchem-fragalysis-2/maxwin/BulkDock/SCRATCH/505732/C1448-P5/C1448-P5.minimised.mol

>  <scratch_subdir>  (105) 
/opt/xchem-fragalysis-2/maxwin/BulkDock/SCRATCH/505732/C1448-P5

>  <fragmenstein_runtime>  (105) 
6.322885513305664

>  <fragmenstein_outcome>  (105) 
too moved

>  <fragmenstein_mode>  (105) 
expansion

>  <fragmenstein_error>  (105) 


$$$$
C1448-P81
     RDKit          3D

 51 53  0  0  0  0  0  0  0  0999 V2000
    6.0724   -6.0542   17.0652 C   0  0  0  0  0  0  0  0  0  0  0  0
    7.3035   -5.6577   15.9178 C   0  0  0  0  0  0  0  0  0  0  0  0
    7.7324   -6.6804   15.3943 O   0  0  0  0  0  0  0  0  0  0  0  0
    7.9310   -3.9184   15.6836 N   0  0  0  0  0  0  0  0  0  0  0  0
    9.1715   -3.3838   14.8831 C   0  0  0  0  0  0  0  0  0  0  0  0
   10.2161   -2.3543   15.4398 C   0  0  0  0  0  0  0  0  0  0  0  0
   11.2454   -1.8873   14.3838 C   0  0  0  0  0  0  0  0  0  0  0  0
   11.1050   -0.3926   14.1868 C   0  0  0  0  0  0  0  0  0  0  0  0
   11.7629    0.1007   15.4013 N   0  0  0  0  0  0  0  0  0  0  0  0
   13.0506   -0.6423   15.4916 C   0  0  0  0  0  0  0  0  0  0  0  0
   13.3923   -0.8893   16.9658 C   0  0  0  0  0  0  0  0  0  0  0  0
   14.8375   -1.3038   17.2590 C   0  0  0  0  0  0  0  0  0  0  0  0
   15.6395   -1.7008   16.0362 C   0  0  0  0  0  0  0  0  0  0  0  0
   15.1809   -2.9181   15.6202 F   0  0  0  0  0  0  0  0  0  0  0  0
   15.5472   -0.7295   14.8624 C   0  0  0  0  0  0  0  0  0  0  0  0
   14.2440    0.0938   14.8028 C   0  0  0  0  0  0  0  0  0  0  0  0
   14.4268    1.4622   15.3311 N   0  0  0  0  0  0  0  0  0  0  0  0
   15.3180    1.7259   16.3504 N   0  0  0  0  0  0  0  0  0  0  0  0
   15.1523    2.9731   16.6674 C   0  0  0  0  0  0  0  0  0  0  0  0
   15.9221    3.6692   17.7321 C   0  0  0  0  0  0  0  0  0  0  0  0
   14.1026    3.6764   15.8701 C   0  0  0  0  0  0  0  0  0  0  0  0
   13.6250    2.5587   14.9993 C   0  0  0  0  0  0  0  0  0  0  0  0
   12.6923    2.6064   14.2130 O   0  0  0  0  0  0  0  0  0  0  0  0
   12.7074   -1.9889   14.8142 C   0  0  0  0  0  0  0  0  0  0  0  0
    5.7708   -7.0386   16.9173 H   0  0  0  0  0  0  0  0  0  0  0  0
    5.1224   -5.5302   16.9866 H   0  0  0  0  0  0  0  0  0  0  0  0
    6.4697   -6.0404   18.0834 H   0  0  0  0  0  0  0  0  0  0  0  0
    7.3588   -3.2892   16.1469 H   0  0  0  0  0  0  0  0  0  0  0  0
    8.6266   -2.8355   14.1306 H   0  0  0  0  0  0  0  0  0  0  0  0
    9.8399   -4.2179   14.6995 H   0  0  0  0  0  0  0  0  0  0  0  0
   10.7938   -2.8309   16.2365 H   0  0  0  0  0  0  0  0  0  0  0  0
    9.6596   -1.5095   15.8600 H   0  0  0  0  0  0  0  0  0  0  0  0
   11.1700   -2.4813   13.4740 H   0  0  0  0  0  0  0  0  0  0  0  0
   10.0688   -0.0451   14.1375 H   0  0  0  0  0  0  0  0  0  0  0  0
   11.6254   -0.0483   13.2859 H   0  0  0  0  0  0  0  0  0  0  0  0
   11.9194    1.1006   15.2784 H   0  0  0  0  0  0  0  0  0  0  0  0
   12.7308   -1.6700   17.3506 H   0  0  0  0  0  0  0  0  0  0  0  0
   13.1930    0.0132   17.5544 H   0  0  0  0  0  0  0  0  0  0  0  0
   14.8240   -2.1375   17.9718 H   0  0  0  0  0  0  0  0  0  0  0  0
   15.3478   -0.4803   17.7715 H   0  0  0  0  0  0  0  0  0  0  0  0
   16.6893   -1.8539   16.3072 H   0  0  0  0  0  0  0  0  0  0  0  0
   16.4177   -0.0626   14.8659 H   0  0  0  0  0  0  0  0  0  0  0  0
   15.6276   -1.3168   13.9383 H   0  0  0  0  0  0  0  0  0  0  0  0
   13.9972    0.2405   13.7423 H   0  0  0  0  0  0  0  0  0  0  0  0
   15.2330    4.0308   18.4996 H   0  0  0  0  0  0  0  0  0  0  0  0
   16.6442    2.9876   18.1889 H   0  0  0  0  0  0  0  0  0  0  0  0
   16.4540    4.5197   17.2981 H   0  0  0  0  0  0  0  0  0  0  0  0
   14.5406    4.4793   15.2751 H   0  0  0  0  0  0  0  0  0  0  0  0
   13.3032    4.0328   16.5219 H   0  0  0  0  0  0  0  0  0  0  0  0
   12.8630   -2.8687   15.4470 H   0  0  0  0  0  0  0  0  0  0  0  0
   13.3164   -2.1278   13.9117 H   0  0  0  0  0  0  0  0  0  0  0  0
  1  2  1  0
  2  3  2  0
  2  4  1  0
  4  5  1  0
  5  6  1  0
  6  7  1  0
  7  8  1  0
  8  9  1  0
  9 10  1  0
 10 11  1  0
 11 12  1  0
 12 13  1  0
 13 14  1  0
 13 15  1  0
 15 16  1  0
 16 17  1  0
 17 18  1  0
 18 19  2  0
 19 20  1  0
 19 21  1  0
 21 22  1  0
 22 23  2  0
 10 24  1  0
 24  7  1  0
 16 10  1  0
 22 17  1  0
  1 25  1  0
  1 26  1  0
  1 27  1  0
  4 28  1  0
  5 29  1  0
  5 30  1  0
  6 31  1  0
  6 32  1  0
  7 33  1  0
  8 34  1  0
  8 35  1  0
  9 36  1  0
 11 37  1  0
 11 38  1  0
 12 39  1  0
 12 40  1  0
 13 41  1  0
 15 42  1  0
 15 43  1  0
 16 44  1  0
 20 45  1  0
 20 46  1  0
 20 47  1  0
 21 48  1  0
 21 49  1  0
 24 50  1  0
 24 51  1  0
M  END
>  <Energy>  (106) 
154.09362593612198

>  <compound_id>  (106) 
1448

>  <target_id>  (106) 
1

>  <reference_id>  (106) 
81

>  <inspiration_ids>  (106) 
[5, 81]

>  <energy_score>  (106) 
76.59730717492579

>  <distance_score>  (106) 
2.2377111270923375

>  <path>  (106) 
/opt/xchem-fragalysis-2/maxwin/BulkDock/SCRATCH/505732/C1448-P81/C1448-P81.minimised.mol

>  <scratch_subdir>  (106) 
/opt/xchem-fragalysis-2/maxwin/BulkDock/SCRATCH/505732/C1448-P81

>  <fragmenstein_runtime>  (106) 
7.082316637039185

>  <fragmenstein_outcome>  (106) 
too moved

>  <fragmenstein_mode>  (106) 
expansion

>  <fragmenstein_error>  (106) 


$$$$
C1449-P5
     RDKit          3D

 28 29  0  0  0  0  0  0  0  0999 V2000
   15.6438   -0.2914   15.4167 C   0  0  0  0  0  0  0  0  0  0  0  0
   14.5812    0.7367   15.6831 C   0  0  0  0  0  0  0  0  0  0  0  0
   14.7190    2.0705   15.6525 C   0  0  0  0  0  0  0  0  0  0  0  0
   15.9602    2.8834   15.4977 C   0  0  0  0  0  0  0  0  0  0  0  0
   17.1224    2.0576   15.4953 O   0  0  0  0  0  0  0  0  0  0  0  0
   13.3697    2.7411   15.7435 C   0  0  0  0  0  0  0  0  0  0  0  0
   12.4298    1.5410   15.7750 C   0  0  0  0  0  0  0  0  0  0  0  0
   11.2072    1.6188   15.7951 O   0  0  0  0  0  0  0  0  0  0  0  0
   13.2472    0.3978   15.8190 N   0  0  0  0  0  0  0  0  0  0  0  0
   12.7473   -0.9148   15.9574 C   0  0  0  0  0  0  0  0  0  0  0  0
   13.4224   -1.8279   16.7859 C   0  0  0  0  0  0  0  0  0  0  0  0
   13.0256   -3.1559   16.8581 C   0  0  0  0  0  0  0  0  0  0  0  0
   11.9465   -3.5781   16.0986 C   0  0  0  0  0  0  0  0  0  0  0  0
   11.2531   -2.6771   15.2913 C   0  0  0  0  0  0  0  0  0  0  0  0
   11.6321   -1.3388   15.2388 C   0  0  0  0  0  0  0  0  0  0  0  0
   15.2369   -1.1999   14.9616 H   0  0  0  0  0  0  0  0  0  0  0  0
   16.1677   -0.5600   16.3387 H   0  0  0  0  0  0  0  0  0  0  0  0
   16.3748    0.0564   14.6818 H   0  0  0  0  0  0  0  0  0  0  0  0
   15.9313    3.4413   14.5566 H   0  0  0  0  0  0  0  0  0  0  0  0
   16.0493    3.5898   16.3290 H   0  0  0  0  0  0  0  0  0  0  0  0
   17.8865    2.6522   15.4118 H   0  0  0  0  0  0  0  0  0  0  0  0
   13.2679    3.3209   16.6642 H   0  0  0  0  0  0  0  0  0  0  0  0
   13.1626    3.3486   14.8589 H   0  0  0  0  0  0  0  0  0  0  0  0
   14.2579   -1.5052   17.4012 H   0  0  0  0  0  0  0  0  0  0  0  0
   13.5455   -3.8525   17.5081 H   0  0  0  0  0  0  0  0  0  0  0  0
   11.6297   -4.6133   16.1592 H   0  0  0  0  0  0  0  0  0  0  0  0
   10.4097   -3.0142   14.6971 H   0  0  0  0  0  0  0  0  0  0  0  0
   11.0891   -0.6648   14.5800 H   0  0  0  0  0  0  0  0  0  0  0  0
  1  2  1  0
  2  3  2  0
  3  4  1  0
  4  5  1  0
  3  6  1  0
  6  7  1  0
  7  8  2  0
  7  9  1  0
  9 10  1  0
 10 11  2  0
 11 12  1  0
 12 13  2  0
 13 14  1  0
 14 15  2  0
  9  2  1  0
 15 10  1  0
  1 16  1  0
  1 17  1  0
  1 18  1  0
  4 19  1  0
  4 20  1  0
  5 21  1  0
  6 22  1  0
  6 23  1  0
 11 24  1  0
 12 25  1  0
 13 26  1  0
 14 27  1  0
 15 28  1  0
M  END
>  <Energy>  (107) 
42.268882632303239

>  <compound_id>  (107) 
1449

>  <target_id>  (107) 
1

>  <reference_id>  (107) 
5

>  <inspiration_ids>  (107) 
[5, 83]

>  <energy_score>  (107) 
-5.103070582674263

>  <distance_score>  (107) 
0.9152875771638215

>  <path>  (107) 
/opt/xchem-fragalysis-2/maxwin/BulkDock/SCRATCH/505732/C1449-P5/C1449-P5.minimised.mol

>  <scratch_subdir>  (107) 
/opt/xchem-fragalysis-2/maxwin/BulkDock/SCRATCH/505732/C1449-P5

>  <fragmenstein_runtime>  (107) 
2.509709358215332

>  <fragmenstein_outcome>  (107) 
acceptable

>  <fragmenstein_mode>  (107) 
expansion

>  <fragmenstein_error>  (107) 


$$$$
C1449-P83
     RDKit          3D

 28 29  0  0  0  0  0  0  0  0999 V2000
   15.6735   -0.5168   14.5848 C   0  0  0  0  0  0  0  0  0  0  0  0
   14.5547    0.4705   14.7426 C   0  0  0  0  0  0  0  0  0  0  0  0
   14.6212    1.7888   14.4989 C   0  0  0  0  0  0  0  0  0  0  0  0
   15.8335    2.6099   14.2208 C   0  0  0  0  0  0  0  0  0  0  0  0
   17.0022    1.9350   14.6838 O   0  0  0  0  0  0  0  0  0  0  0  0
   13.2416    2.3951   14.4940 C   0  0  0  0  0  0  0  0  0  0  0  0
   12.3778    1.1941   14.8689 C   0  0  0  0  0  0  0  0  0  0  0  0
   11.1696    1.2605   15.0576 O   0  0  0  0  0  0  0  0  0  0  0  0
   13.2496    0.0911   15.0034 N   0  0  0  0  0  0  0  0  0  0  0  0
   12.8186   -1.1980   15.4092 C   0  0  0  0  0  0  0  0  0  0  0  0
   13.6205   -1.9938   16.2488 C   0  0  0  0  0  0  0  0  0  0  0  0
   13.2548   -3.2958   16.5819 C   0  0  0  0  0  0  0  0  0  0  0  0
   12.0789   -3.8206   16.0725 C   0  0  0  0  0  0  0  0  0  0  0  0
   11.2535   -3.0264   15.2795 C   0  0  0  0  0  0  0  0  0  0  0  0
   11.6038   -1.7138   14.9675 C   0  0  0  0  0  0  0  0  0  0  0  0
   15.3143   -1.4860   14.2243 H   0  0  0  0  0  0  0  0  0  0  0  0
   16.2125   -0.6577   15.5259 H   0  0  0  0  0  0  0  0  0  0  0  0
   16.3900   -0.1954   13.8219 H   0  0  0  0  0  0  0  0  0  0  0  0
   15.9295    2.8006   13.1476 H   0  0  0  0  0  0  0  0  0  0  0  0
   15.7722    3.5648   14.7519 H   0  0  0  0  0  0  0  0  0  0  0  0
   17.7635    2.4823   14.4266 H   0  0  0  0  0  0  0  0  0  0  0  0
   13.1335    3.1888   15.2359 H   0  0  0  0  0  0  0  0  0  0  0  0
   12.9657    2.7503   13.4975 H   0  0  0  0  0  0  0  0  0  0  0  0
   14.5349   -1.6007   16.6823 H   0  0  0  0  0  0  0  0  0  0  0  0
   13.8857   -3.9037   17.2257 H   0  0  0  0  0  0  0  0  0  0  0  0
   11.7998   -4.8461   16.3052 H   0  0  0  0  0  0  0  0  0  0  0  0
   10.3229   -3.4345   14.9034 H   0  0  0  0  0  0  0  0  0  0  0  0
   10.9424   -1.1345   14.3286 H   0  0  0  0  0  0  0  0  0  0  0  0
  1  2  1  0
  2  3  2  0
  3  4  1  0
  4  5  1  0
  3  6  1  0
  6  7  1  0
  7  8  2  0
  7  9  1  0
  9 10  1  0
 10 11  2  0
 11 12  1  0
 12 13  2  0
 13 14  1  0
 14 15  2  0
  9  2  1  0
 15 10  1  0
  1 16  1  0
  1 17  1  0
  1 18  1  0
  4 19  1  0
  4 20  1  0
  5 21  1  0
  6 22  1  0
  6 23  1  0
 11 24  1  0
 12 25  1  0
 13 26  1  0
 14 27  1  0
 15 28  1  0
M  END
>  <Energy>  (108) 
41.046656795000118

>  <compound_id>  (108) 
1449

>  <target_id>  (108) 
1

>  <reference_id>  (108) 
83

>  <inspiration_ids>  (108) 
[5, 83]

>  <energy_score>  (108) 
-6.32529641997769

>  <distance_score>  (108) 
1.3362888631333405

>  <path>  (108) 
/opt/xchem-fragalysis-2/maxwin/BulkDock/SCRATCH/505732/C1449-P83/C1449-P83.minimised.mol

>  <scratch_subdir>  (108) 
/opt/xchem-fragalysis-2/maxwin/BulkDock/SCRATCH/505732/C1449-P83

>  <fragmenstein_runtime>  (108) 
2.895233392715454

>  <fragmenstein_outcome>  (108) 
too moved

>  <fragmenstein_mode>  (108) 
expansion

>  <fragmenstein_error>  (108) 


$$$$
C1452-P5
     RDKit          3D

 23 24  0  0  0  0  0  0  0  0999 V2000
   15.4374    3.6508   17.1427 C   0  0  0  0  0  0  0  0  0  0  0  0
   14.2950    2.7504   16.8398 C   0  0  0  0  0  0  0  0  0  0  0  0
   14.3872    1.4577   16.7968 N   0  0  0  0  0  0  0  0  0  0  0  0
   13.1399    1.0086   16.4336 N   0  0  0  0  0  0  0  0  0  0  0  0
   12.9514   -0.3784   16.2329 C   0  0  0  0  0  0  0  0  0  0  0  0
   13.6201   -1.2880   17.0644 C   0  0  0  0  0  0  0  0  0  0  0  0
   13.3429   -2.6572   16.9982 C   0  0  0  0  0  0  0  0  0  0  0  0
   12.4150   -3.1378   16.0791 C   0  0  0  0  0  0  0  0  0  0  0  0
   11.8236   -2.2624   15.1711 C   0  0  0  0  0  0  0  0  0  0  0  0
   12.1165   -0.8937   15.2326 C   0  0  0  0  0  0  0  0  0  0  0  0
   11.5923    0.2789   13.5901 I   0  0  0  0  0  0  0  0  0  0  0  0
   12.1634    2.0232   16.3493 C   0  0  0  0  0  0  0  0  0  0  0  0
   10.9517    1.9565   16.2000 O   0  0  0  0  0  0  0  0  0  0  0  0
   12.9330    3.2895   16.5449 C   0  0  0  0  0  0  0  0  0  0  0  0
   15.6150    4.3105   16.2894 H   0  0  0  0  0  0  0  0  0  0  0  0
   15.1990    4.2567   18.0206 H   0  0  0  0  0  0  0  0  0  0  0  0
   16.3410    3.0688   17.3418 H   0  0  0  0  0  0  0  0  0  0  0  0
   14.3187   -0.9279   17.8170 H   0  0  0  0  0  0  0  0  0  0  0  0
   13.8315   -3.3423   17.6865 H   0  0  0  0  0  0  0  0  0  0  0  0
   12.1820   -4.1985   16.0490 H   0  0  0  0  0  0  0  0  0  0  0  0
   11.1716   -2.6588   14.3949 H   0  0  0  0  0  0  0  0  0  0  0  0
   12.9439    3.8851   15.6305 H   0  0  0  0  0  0  0  0  0  0  0  0
   12.5554    3.8556   17.3971 H   0  0  0  0  0  0  0  0  0  0  0  0
  1  2  1  0
  2  3  2  0
  3  4  1  0
  4  5  1  0
  5  6  2  0
  6  7  1  0
  7  8  2  0
  8  9  1  0
  9 10  2  0
 10 11  1  0
  4 12  1  0
 12 13  2  0
 12 14  1  0
 14  2  1  0
 10  5  1  0
  1 15  1  0
  1 16  1  0
  1 17  1  0
  6 18  1  0
  7 19  1  0
  8 20  1  0
  9 21  1  0
 14 22  1  0
 14 23  1  0
M  END
>  <Energy>  (109) 
62.916355234663165

>  <compound_id>  (109) 
1452

>  <target_id>  (109) 
1

>  <reference_id>  (109) 
5

>  <inspiration_ids>  (109) 
[5, 97]

>  <energy_score>  (109) 
-18.35633413944103

>  <distance_score>  (109) 
0.7685335614221862

>  <path>  (109) 
/opt/xchem-fragalysis-2/maxwin/BulkDock/SCRATCH/505732/C1452-P5/C1452-P5.minimised.mol

>  <scratch_subdir>  (109) 
/opt/xchem-fragalysis-2/maxwin/BulkDock/SCRATCH/505732/C1452-P5

>  <fragmenstein_runtime>  (109) 
0.8303744792938232

>  <fragmenstein_outcome>  (109) 
acceptable

>  <fragmenstein_mode>  (109) 
expansion

>  <fragmenstein_error>  (109) 


$$$$
C1452-P97
     RDKit          3D

 23 24  0  0  0  0  0  0  0  0999 V2000
   15.5292    3.7285   17.0948 C   0  0  0  0  0  0  0  0  0  0  0  0
   14.3994    2.8148   16.7879 C   0  0  0  0  0  0  0  0  0  0  0  0
   14.5140    1.5254   16.7157 N   0  0  0  0  0  0  0  0  0  0  0  0
   13.2722    1.0623   16.3577 N   0  0  0  0  0  0  0  0  0  0  0  0
   13.0951   -0.3236   16.1443 C   0  0  0  0  0  0  0  0  0  0  0  0
   13.8040   -1.2384   16.9347 C   0  0  0  0  0  0  0  0  0  0  0  0
   13.5075   -2.6035   16.8836 C   0  0  0  0  0  0  0  0  0  0  0  0
   12.5149   -3.0688   16.0267 C   0  0  0  0  0  0  0  0  0  0  0  0
   11.8956   -2.1912   15.1399 C   0  0  0  0  0  0  0  0  0  0  0  0
   12.2136   -0.8291   15.1801 C   0  0  0  0  0  0  0  0  0  0  0  0
   11.6587    0.3581   13.5540 I   0  0  0  0  0  0  0  0  0  0  0  0
   12.2741    2.0576   16.3247 C   0  0  0  0  0  0  0  0  0  0  0  0
   11.0603    1.9684   16.2168 O   0  0  0  0  0  0  0  0  0  0  0  0
   13.0208    3.3340   16.5366 C   0  0  0  0  0  0  0  0  0  0  0  0
   15.6657    4.4278   16.2659 H   0  0  0  0  0  0  0  0  0  0  0  0
   15.3040    4.2909   18.0046 H   0  0  0  0  0  0  0  0  0  0  0  0
   16.4516    3.1608   17.2421 H   0  0  0  0  0  0  0  0  0  0  0  0
   14.5443   -0.8869   17.6501 H   0  0  0  0  0  0  0  0  0  0  0  0
   14.0244   -3.2958   17.5439 H   0  0  0  0  0  0  0  0  0  0  0  0
   12.2542   -4.1223   16.0283 H   0  0  0  0  0  0  0  0  0  0  0  0
   11.2010   -2.5817   14.3993 H   0  0  0  0  0  0  0  0  0  0  0  0
   12.9977    3.9565   15.6407 H   0  0  0  0  0  0  0  0  0  0  0  0
   12.6481    3.8627   17.4158 H   0  0  0  0  0  0  0  0  0  0  0  0
  1  2  1  0
  2  3  2  0
  3  4  1  0
  4  5  1  0
  5  6  2  0
  6  7  1  0
  7  8  2  0
  8  9  1  0
  9 10  2  0
 10 11  1  0
  4 12  1  0
 12 13  2  0
 12 14  1  0
 14  2  1  0
 10  5  1  0
  1 15  1  0
  1 16  1  0
  1 17  1  0
  6 18  1  0
  7 19  1  0
  8 20  1  0
  9 21  1  0
 14 22  1  0
 14 23  1  0
M  END
>  <Energy>  (110) 
63.391870066181035

>  <compound_id>  (110) 
1452

>  <target_id>  (110) 
1

>  <reference_id>  (110) 
97

>  <inspiration_ids>  (110) 
[5, 97]

>  <energy_score>  (110) 
-17.880819307923872

>  <distance_score>  (110) 
0.8304531987659806

>  <path>  (110) 
/opt/xchem-fragalysis-2/maxwin/BulkDock/SCRATCH/505732/C1452-P97/C1452-P97.minimised.mol

>  <scratch_subdir>  (110) 
/opt/xchem-fragalysis-2/maxwin/BulkDock/SCRATCH/505732/C1452-P97

>  <fragmenstein_runtime>  (110) 
0.7195987701416016

>  <fragmenstein_outcome>  (110) 
acceptable

>  <fragmenstein_mode>  (110) 
expansion

>  <fragmenstein_error>  (110) 


$$$$
C1453-P5
     RDKit          3D

 43 44  0  0  0  0  0  0  0  0999 V2000
   15.5646    3.1015   17.0104 C   0  0  0  0  0  0  0  0  0  0  0  0
   14.3620    2.3244   16.6071 C   0  0  0  0  0  0  0  0  0  0  0  0
   14.3200    1.0274   16.5366 N   0  0  0  0  0  0  0  0  0  0  0  0
   13.0398    0.7147   16.1125 N   0  0  0  0  0  0  0  0  0  0  0  0
   12.6388   -0.6441   15.9677 C   0  0  0  0  0  0  0  0  0  0  0  0
   11.3966   -0.9181   15.3866 C   0  0  0  0  0  0  0  0  0  0  0  0
   10.9079   -2.2137   15.2569 C   0  0  0  0  0  0  0  0  0  0  0  0
   11.6335   -3.2827   15.7193 C   0  0  0  0  0  0  0  0  0  0  0  0
   12.8667   -3.0543   16.2834 C   0  0  0  0  0  0  0  0  0  0  0  0
   13.3933   -1.7571   16.3882 C   0  0  0  0  0  0  0  0  0  0  0  0
   14.7012   -1.6632   16.8429 N   0  0  0  0  0  0  0  0  0  0  0  0
   15.6400   -2.7525   17.4503 C   0  0  0  0  0  0  0  0  0  0  0  0
   15.4279   -3.8386   17.7199 O   0  0  0  0  0  0  0  0  0  0  0  0
   16.9641   -1.9562   17.4827 N   0  0  0  0  0  0  0  0  0  0  0  0
   18.3267   -2.3969   17.7743 C   0  0  0  0  0  0  0  0  0  0  0  0
   19.3079   -1.2834   17.3815 C   0  0  0  0  0  0  0  0  0  0  0  0
   18.6093   -3.6869   16.9456 C   0  0  0  0  0  0  0  0  0  0  0  0
   18.4600   -3.4422   15.5441 O   0  0  0  0  0  0  0  0  0  0  0  0
   18.4493   -2.7339   19.2799 C   0  0  0  0  0  0  0  0  0  0  0  0
   19.7732   -3.1047   19.6533 O   0  0  0  0  0  0  0  0  0  0  0  0
   12.2103    1.8474   15.9347 C   0  0  0  0  0  0  0  0  0  0  0  0
   11.0304    1.9459   15.6318 O   0  0  0  0  0  0  0  0  0  0  0  0
   13.0904    3.0129   16.2430 C   0  0  0  0  0  0  0  0  0  0  0  0
   16.3932    2.4274   17.2423 H   0  0  0  0  0  0  0  0  0  0  0  0
   15.8584    3.7657   16.1935 H   0  0  0  0  0  0  0  0  0  0  0  0
   15.3301    3.7009   17.8939 H   0  0  0  0  0  0  0  0  0  0  0  0
   10.7649   -0.1405   14.9683 H   0  0  0  0  0  0  0  0  0  0  0  0
    9.9434   -2.3777   14.7845 H   0  0  0  0  0  0  0  0  0  0  0  0
   11.2501   -4.2890   15.6374 H   0  0  0  0  0  0  0  0  0  0  0  0
   13.4232   -3.9276   16.6098 H   0  0  0  0  0  0  0  0  0  0  0  0
   15.1855   -0.7799   16.8052 H   0  0  0  0  0  0  0  0  0  0  0  0
   16.8151   -1.0370   17.1021 H   0  0  0  0  0  0  0  0  0  0  0  0
   19.1481   -0.3885   17.9940 H   0  0  0  0  0  0  0  0  0  0  0  0
   20.3491   -1.5985   17.5072 H   0  0  0  0  0  0  0  0  0  0  0  0
   19.1751   -0.9841   16.3355 H   0  0  0  0  0  0  0  0  0  0  0  0
   17.9446   -4.5124   17.2215 H   0  0  0  0  0  0  0  0  0  0  0  0
   19.6383   -4.0266   17.1058 H   0  0  0  0  0  0  0  0  0  0  0  0
   17.5015   -3.3598   15.3873 H   0  0  0  0  0  0  0  0  0  0  0  0
   17.7868   -3.5663   19.5433 H   0  0  0  0  0  0  0  0  0  0  0  0
   18.1452   -1.8807   19.8982 H   0  0  0  0  0  0  0  0  0  0  0  0
   20.2876   -2.2883   19.7745 H   0  0  0  0  0  0  0  0  0  0  0  0
   12.7061    3.5794   17.0930 H   0  0  0  0  0  0  0  0  0  0  0  0
   13.2314    3.6408   15.3616 H   0  0  0  0  0  0  0  0  0  0  0  0
  1  2  1  0
  2  3  2  0
  3  4  1  0
  4  5  1  0
  5  6  2  0
  6  7  1  0
  7  8  2  0
  8  9  1  0
  9 10  2  0
 10 11  1  0
 11 12  1  0
 12 13  2  0
 12 14  1  0
 14 15  1  0
 15 16  1  0
 15 17  1  0
 17 18  1  0
 15 19  1  0
 19 20  1  0
  4 21  1  0
 21 22  2  0
 21 23  1  0
 23  2  1  0
 10  5  1  0
  1 24  1  0
  1 25  1  0
  1 26  1  0
  6 27  1  0
  7 28  1  0
  8 29  1  0
  9 30  1  0
 11 31  1  0
 14 32  1  0
 16 33  1  0
 16 34  1  0
 16 35  1  0
 17 36  1  0
 17 37  1  0
 18 38  1  0
 19 39  1  0
 19 40  1  0
 20 41  1  0
 23 42  1  0
 23 43  1  0
M  END
>  <Energy>  (111) 
51.157782100025855

>  <compound_id>  (111) 
1453

>  <target_id>  (111) 
1

>  <reference_id>  (111) 
5

>  <inspiration_ids>  (111) 
[5, 98]

>  <energy_score>  (111) 
-44.768932189077134

>  <distance_score>  (111) 
1.9047490081630418

>  <path>  (111) 
/opt/xchem-fragalysis-2/maxwin/BulkDock/SCRATCH/505732/C1453-P5/C1453-P5.minimised.mol

>  <scratch_subdir>  (111) 
/opt/xchem-fragalysis-2/maxwin/BulkDock/SCRATCH/505732/C1453-P5

>  <fragmenstein_runtime>  (111) 
3.917980194091797

>  <fragmenstein_outcome>  (111) 
too moved

>  <fragmenstein_mode>  (111) 
expansion

>  <fragmenstein_error>  (111) 


$$$$
C1453-P98
     RDKit          3D

 43 44  0  0  0  0  0  0  0  0999 V2000
   15.6212    3.1456   16.8941 C   0  0  0  0  0  0  0  0  0  0  0  0
   14.4228    2.3645   16.4868 C   0  0  0  0  0  0  0  0  0  0  0  0
   14.3804    1.0671   16.4328 N   0  0  0  0  0  0  0  0  0  0  0  0
   13.1021    0.7486   16.0088 N   0  0  0  0  0  0  0  0  0  0  0  0
   12.6965   -0.6110   15.8920 C   0  0  0  0  0  0  0  0  0  0  0  0
   11.4529   -0.8921   15.3174 C   0  0  0  0  0  0  0  0  0  0  0  0
   10.9526   -2.1863   15.2312 C   0  0  0  0  0  0  0  0  0  0  0  0
   11.6685   -3.2435   15.7332 C   0  0  0  0  0  0  0  0  0  0  0  0
   12.9072   -3.0090   16.2839 C   0  0  0  0  0  0  0  0  0  0  0  0
   13.4477   -1.7155   16.3391 C   0  0  0  0  0  0  0  0  0  0  0  0
   14.7581   -1.6100   16.7873 N   0  0  0  0  0  0  0  0  0  0  0  0
   15.7464   -2.7109   17.2894 C   0  0  0  0  0  0  0  0  0  0  0  0
   15.5790   -3.8242   17.4666 O   0  0  0  0  0  0  0  0  0  0  0  0
   17.0406   -1.8691   17.3772 N   0  0  0  0  0  0  0  0  0  0  0  0
   18.4234   -2.2803   17.6164 C   0  0  0  0  0  0  0  0  0  0  0  0
   19.3656   -1.2486   16.9804 C   0  0  0  0  0  0  0  0  0  0  0  0
   18.6586   -3.6684   16.9332 C   0  0  0  0  0  0  0  0  0  0  0  0
   18.1379   -4.7549   17.6967 O   0  0  0  0  0  0  0  0  0  0  0  0
   18.6728   -2.3702   19.1402 C   0  0  0  0  0  0  0  0  0  0  0  0
   19.9459   -2.9318   19.4451 O   0  0  0  0  0  0  0  0  0  0  0  0
   12.2698    1.8770   15.8267 C   0  0  0  0  0  0  0  0  0  0  0  0
   11.0842    1.9694   15.5484 O   0  0  0  0  0  0  0  0  0  0  0  0
   13.1525    3.0476   16.1078 C   0  0  0  0  0  0  0  0  0  0  0  0
   15.9131    3.8140   16.0800 H   0  0  0  0  0  0  0  0  0  0  0  0
   15.3829    3.7407   17.7794 H   0  0  0  0  0  0  0  0  0  0  0  0
   16.4527    2.4745   17.1246 H   0  0  0  0  0  0  0  0  0  0  0  0
   10.8284   -0.1219   14.8739 H   0  0  0  0  0  0  0  0  0  0  0  0
    9.9852   -2.3569   14.7678 H   0  0  0  0  0  0  0  0  0  0  0  0
   11.2698   -4.2462   15.6997 H   0  0  0  0  0  0  0  0  0  0  0  0
   13.4501   -3.8745   16.6501 H   0  0  0  0  0  0  0  0  0  0  0  0
   15.2520   -0.7408   16.6643 H   0  0  0  0  0  0  0  0  0  0  0  0
   16.8521   -0.9277   17.0791 H   0  0  0  0  0  0  0  0  0  0  0  0
   20.4169   -1.5182   17.1277 H   0  0  0  0  0  0  0  0  0  0  0  0
   19.1869   -1.1659   15.9020 H   0  0  0  0  0  0  0  0  0  0  0  0
   19.2098   -0.2531   17.4122 H   0  0  0  0  0  0  0  0  0  0  0  0
   19.7330   -3.8560   16.8277 H   0  0  0  0  0  0  0  0  0  0  0  0
   18.2238   -3.7037   15.9274 H   0  0  0  0  0  0  0  0  0  0  0  0
   17.1587   -4.6806   17.6594 H   0  0  0  0  0  0  0  0  0  0  0  0
   17.9040   -2.9710   19.6406 H   0  0  0  0  0  0  0  0  0  0  0  0
   18.6306   -1.3723   19.5918 H   0  0  0  0  0  0  0  0  0  0  0  0
   19.8534   -3.8934   19.2904 H   0  0  0  0  0  0  0  0  0  0  0  0
   12.7695    3.6323   16.9464 H   0  0  0  0  0  0  0  0  0  0  0  0
   13.2936    3.6563   15.2131 H   0  0  0  0  0  0  0  0  0  0  0  0
  1  2  1  0
  2  3  2  0
  3  4  1  0
  4  5  1  0
  5  6  2  0
  6  7  1  0
  7  8  2  0
  8  9  1  0
  9 10  2  0
 10 11  1  0
 11 12  1  0
 12 13  2  0
 12 14  1  0
 14 15  1  0
 15 16  1  0
 15 17  1  0
 17 18  1  0
 15 19  1  0
 19 20  1  0
  4 21  1  0
 21 22  2  0
 21 23  1  0
 23  2  1  0
 10  5  1  0
  1 24  1  0
  1 25  1  0
  1 26  1  0
  6 27  1  0
  7 28  1  0
  8 29  1  0
  9 30  1  0
 11 31  1  0
 14 32  1  0
 16 33  1  0
 16 34  1  0
 16 35  1  0
 17 36  1  0
 17 37  1  0
 18 38  1  0
 19 39  1  0
 19 40  1  0
 20 41  1  0
 23 42  1  0
 23 43  1  0
M  END
>  <Energy>  (112) 
49.203014316728797

>  <compound_id>  (112) 
1453

>  <target_id>  (112) 
1

>  <reference_id>  (112) 
98

>  <inspiration_ids>  (112) 
[5, 98]

>  <energy_score>  (112) 
-46.72369997237354

>  <distance_score>  (112) 
1.9380775806529813

>  <path>  (112) 
/opt/xchem-fragalysis-2/maxwin/BulkDock/SCRATCH/505732/C1453-P98/C1453-P98.minimised.mol

>  <scratch_subdir>  (112) 
/opt/xchem-fragalysis-2/maxwin/BulkDock/SCRATCH/505732/C1453-P98

>  <fragmenstein_runtime>  (112) 
3.806123733520508

>  <fragmenstein_outcome>  (112) 
too moved

>  <fragmenstein_mode>  (112) 
expansion

>  <fragmenstein_error>  (112) 


$$$$
C1454-P5
     RDKit          3D

 25 26  0  0  0  0  0  0  0  0999 V2000
   14.8192    3.7898   16.6891 C   0  0  0  0  0  0  0  0  0  0  0  0
   13.7602    2.8072   16.3332 C   0  0  0  0  0  0  0  0  0  0  0  0
   13.9370    1.5250   16.3611 N   0  0  0  0  0  0  0  0  0  0  0  0
   12.7340    0.9552   15.9765 N   0  0  0  0  0  0  0  0  0  0  0  0
   12.6003   -0.4624   15.9681 C   0  0  0  0  0  0  0  0  0  0  0  0
   11.5702   -1.0747   15.2388 C   0  0  0  0  0  0  0  0  0  0  0  0
   11.4062   -2.4617   15.2547 C   0  0  0  0  0  0  0  0  0  0  0  0
   12.2445   -3.2562   16.0262 C   0  0  0  0  0  0  0  0  0  0  0  0
   13.2802   -2.6718   16.7467 C   0  0  0  0  0  0  0  0  0  0  0  0
   13.4947   -1.2876   16.6960 C   0  0  0  0  0  0  0  0  0  0  0  0
   14.4355   -0.7349   17.5952 N   0  0  0  0  0  0  0  0  0  0  0  0
   11.7315    1.8975   15.6971 C   0  0  0  0  0  0  0  0  0  0  0  0
   10.5578    1.7508   15.3933 O   0  0  0  0  0  0  0  0  0  0  0  0
   12.3938    3.2275   15.9077 C   0  0  0  0  0  0  0  0  0  0  0  0
   14.4763    4.4037   17.5260 H   0  0  0  0  0  0  0  0  0  0  0  0
   15.0183    4.4347   15.8294 H   0  0  0  0  0  0  0  0  0  0  0  0
   15.7399    3.2742   16.9741 H   0  0  0  0  0  0  0  0  0  0  0  0
   10.8847   -0.4956   14.6236 H   0  0  0  0  0  0  0  0  0  0  0  0
   10.6060   -2.9130   14.6737 H   0  0  0  0  0  0  0  0  0  0  0  0
   12.0801   -4.3275   16.0893 H   0  0  0  0  0  0  0  0  0  0  0  0
   13.9039   -3.2982   17.3784 H   0  0  0  0  0  0  0  0  0  0  0  0
   15.2646   -1.3067   17.7091 H   0  0  0  0  0  0  0  0  0  0  0  0
   14.6574    0.2198   17.2929 H   0  0  0  0  0  0  0  0  0  0  0  0
   12.4377    3.7934   14.9756 H   0  0  0  0  0  0  0  0  0  0  0  0
   11.9007    3.7867   16.7046 H   0  0  0  0  0  0  0  0  0  0  0  0
  1  2  1  0
  2  3  2  0
  3  4  1  0
  4  5  1  0
  5  6  2  0
  6  7  1  0
  7  8  2  0
  8  9  1  0
  9 10  2  0
 10 11  1  0
  4 12  1  0
 12 13  2  0
 12 14  1  0
 14  2  1  0
 10  5  1  0
  1 15  1  0
  1 16  1  0
  1 17  1  0
  6 18  1  0
  7 19  1  0
  8 20  1  0
  9 21  1  0
 11 22  1  0
 11 23  1  0
 14 24  1  0
 14 25  1  0
M  END
>  <Energy>  (113) 
55.132648866046722

>  <compound_id>  (113) 
1454

>  <target_id>  (113) 
1

>  <reference_id>  (113) 
5

>  <inspiration_ids>  (113) 
[5, 103]

>  <energy_score>  (113) 
-41.559372843514666

>  <distance_score>  (113) 
0.6822423483861699

>  <path>  (113) 
/opt/xchem-fragalysis-2/maxwin/BulkDock/SCRATCH/505732/C1454-P5/C1454-P5.minimised.mol

>  <scratch_subdir>  (113) 
/opt/xchem-fragalysis-2/maxwin/BulkDock/SCRATCH/505732/C1454-P5

>  <fragmenstein_runtime>  (113) 
0.8197517395019531

>  <fragmenstein_outcome>  (113) 
acceptable

>  <fragmenstein_mode>  (113) 
expansion

>  <fragmenstein_error>  (113) 


$$$$
C1454-P103
     RDKit          3D

 25 26  0  0  0  0  0  0  0  0999 V2000
   14.7882    3.8083   16.6703 C   0  0  0  0  0  0  0  0  0  0  0  0
   13.7365    2.8185   16.3121 C   0  0  0  0  0  0  0  0  0  0  0  0
   13.9137    1.5374   16.3690 N   0  0  0  0  0  0  0  0  0  0  0  0
   12.7195    0.9587   15.9707 N   0  0  0  0  0  0  0  0  0  0  0  0
   12.5928   -0.4599   15.9728 C   0  0  0  0  0  0  0  0  0  0  0  0
   11.5693   -1.0833   15.2431 C   0  0  0  0  0  0  0  0  0  0  0  0
   11.4096   -2.4706   15.2702 C   0  0  0  0  0  0  0  0  0  0  0  0
   12.2463   -3.2544   16.0539 C   0  0  0  0  0  0  0  0  0  0  0  0
   13.2784   -2.6604   16.7718 C   0  0  0  0  0  0  0  0  0  0  0  0
   13.4887   -1.2760   16.7092 C   0  0  0  0  0  0  0  0  0  0  0  0
   14.4284   -0.7139   17.6036 N   0  0  0  0  0  0  0  0  0  0  0  0
   11.7225    1.8946   15.6507 C   0  0  0  0  0  0  0  0  0  0  0  0
   10.5584    1.7389   15.3163 O   0  0  0  0  0  0  0  0  0  0  0  0
   12.3800    3.2292   15.8473 C   0  0  0  0  0  0  0  0  0  0  0  0
   14.4255    4.4434   17.4826 H   0  0  0  0  0  0  0  0  0  0  0  0
   15.0102    4.4311   15.8000 H   0  0  0  0  0  0  0  0  0  0  0  0
   15.7003    3.2987   16.9912 H   0  0  0  0  0  0  0  0  0  0  0  0
   10.8841   -0.5131   14.6194 H   0  0  0  0  0  0  0  0  0  0  0  0
   10.6131   -2.9301   14.6899 H   0  0  0  0  0  0  0  0  0  0  0  0
   12.0826   -4.3245   16.1296 H   0  0  0  0  0  0  0  0  0  0  0  0
   13.9020   -3.2785   17.4120 H   0  0  0  0  0  0  0  0  0  0  0  0
   15.2595   -1.2822   17.7211 H   0  0  0  0  0  0  0  0  0  0  0  0
   14.6466    0.2395   17.2942 H   0  0  0  0  0  0  0  0  0  0  0  0
   12.4462    3.7730   14.9033 H   0  0  0  0  0  0  0  0  0  0  0  0
   11.8699    3.8085   16.6180 H   0  0  0  0  0  0  0  0  0  0  0  0
  1  2  1  0
  2  3  2  0
  3  4  1  0
  4  5  1  0
  5  6  2  0
  6  7  1  0
  7  8  2  0
  8  9  1  0
  9 10  2  0
 10 11  1  0
  4 12  1  0
 12 13  2  0
 12 14  1  0
 14  2  1  0
 10  5  1  0
  1 15  1  0
  1 16  1  0
  1 17  1  0
  6 18  1  0
  7 19  1  0
  8 20  1  0
  9 21  1  0
 11 22  1  0
 11 23  1  0
 14 24  1  0
 14 25  1  0
M  END
>  <Energy>  (114) 
54.994855883270816

>  <compound_id>  (114) 
1454

>  <target_id>  (114) 
1

>  <reference_id>  (114) 
103

>  <inspiration_ids>  (114) 
[5, 103]

>  <energy_score>  (114) 
-41.69716582629172

>  <distance_score>  (114) 
0.6944540467475878

>  <path>  (114) 
/opt/xchem-fragalysis-2/maxwin/BulkDock/SCRATCH/505732/C1454-P103/C1454-P103.minimised.mol

>  <scratch_subdir>  (114) 
/opt/xchem-fragalysis-2/maxwin/BulkDock/SCRATCH/505732/C1454-P103

>  <fragmenstein_runtime>  (114) 
0.8388128280639648

>  <fragmenstein_outcome>  (114) 
acceptable

>  <fragmenstein_mode>  (114) 
expansion

>  <fragmenstein_error>  (114) 


$$$$
C1458-P5
     RDKit          3D

 46 48  0  0  0  0  0  0  0  0999 V2000
   15.2590    3.4597   16.2841 C   0  0  0  0  0  0  0  0  0  0  0  0
   14.0633    2.5997   16.0741 C   0  0  0  0  0  0  0  0  0  0  0  0
   14.1174    1.3175   15.8808 N   0  0  0  0  0  0  0  0  0  0  0  0
   12.8065    0.8891   15.8219 N   0  0  0  0  0  0  0  0  0  0  0  0
   12.5072   -0.4961   15.7996 C   0  0  0  0  0  0  0  0  0  0  0  0
   11.3309   -0.9020   15.1543 C   0  0  0  0  0  0  0  0  0  0  0  0
   10.9692   -2.2407   15.0932 C   0  0  0  0  0  0  0  0  0  0  0  0
   11.7838   -3.2083   15.6462 C   0  0  0  0  0  0  0  0  0  0  0  0
   12.9797   -2.8560   16.2694 C   0  0  0  0  0  0  0  0  0  0  0  0
   13.7808   -3.9463   16.9158 C   0  0  0  0  0  0  0  0  0  0  0  0
   13.3298   -1.4940   16.3739 C   0  0  0  0  0  0  0  0  0  0  0  0
   14.4297   -1.2249   17.1884 N   0  0  0  0  0  0  0  0  0  0  0  0
   14.6671   -0.0830   18.2235 C   0  0  0  0  0  0  0  0  0  0  0  0
   13.9480    0.7552   18.6030 O   0  0  0  0  0  0  0  0  0  0  0  0
   16.0798   -0.2693   18.6828 C   0  0  0  0  0  0  0  0  0  0  0  0
   16.5286    0.9143   19.8980 S   0  0  0  0  0  0  0  0  0  0  0  0
   16.3437    2.2460   19.3506 O   0  0  0  0  0  0  0  0  0  0  0  0
   17.8394    0.5181   20.3863 O   0  0  0  0  0  0  0  0  0  0  0  0
   15.4105    0.6852   21.2546 C   0  0  0  0  0  0  0  0  0  0  0  0
   15.4577   -0.5081   21.9815 C   0  0  0  0  0  0  0  0  0  0  0  0
   14.6202   -0.6644   23.0846 C   0  0  0  0  0  0  0  0  0  0  0  0
   13.7464    0.3614   23.4524 C   0  0  0  0  0  0  0  0  0  0  0  0
   13.7023    1.5475   22.7193 C   0  0  0  0  0  0  0  0  0  0  0  0
   14.5395    1.7157   21.6182 C   0  0  0  0  0  0  0  0  0  0  0  0
   11.8619    1.9289   15.8900 C   0  0  0  0  0  0  0  0  0  0  0  0
   10.6401    1.8962   15.8614 O   0  0  0  0  0  0  0  0  0  0  0  0
   12.6823    3.1676   16.0712 C   0  0  0  0  0  0  0  0  0  0  0  0
   16.1679    2.8527   16.2981 H   0  0  0  0  0  0  0  0  0  0  0  0
   15.3256    4.1902   15.4739 H   0  0  0  0  0  0  0  0  0  0  0  0
   15.1631    3.9884   17.2358 H   0  0  0  0  0  0  0  0  0  0  0  0
   10.6752   -0.1860   14.6609 H   0  0  0  0  0  0  0  0  0  0  0  0
   10.0360   -2.5254   14.6208 H   0  0  0  0  0  0  0  0  0  0  0  0
   11.4508   -4.2395   15.6229 H   0  0  0  0  0  0  0  0  0  0  0  0
   14.7892   -3.9890   16.4931 H   0  0  0  0  0  0  0  0  0  0  0  0
   13.3029   -4.9124   16.7436 H   0  0  0  0  0  0  0  0  0  0  0  0
   13.8365   -3.7976   17.9990 H   0  0  0  0  0  0  0  0  0  0  0  0
   15.2421   -1.8266   17.1558 H   0  0  0  0  0  0  0  0  0  0  0  0
   16.2148   -1.2661   19.1123 H   0  0  0  0  0  0  0  0  0  0  0  0
   16.7625   -0.1381   17.8376 H   0  0  0  0  0  0  0  0  0  0  0  0
   16.1545   -1.3001   21.7229 H   0  0  0  0  0  0  0  0  0  0  0  0
   14.6368   -1.5874   23.6588 H   0  0  0  0  0  0  0  0  0  0  0  0
   13.0832    0.2241   24.3029 H   0  0  0  0  0  0  0  0  0  0  0  0
   13.0127    2.3380   23.0027 H   0  0  0  0  0  0  0  0  0  0  0  0
   14.4999    2.6418   21.0486 H   0  0  0  0  0  0  0  0  0  0  0  0
   12.5496    3.8515   15.2313 H   0  0  0  0  0  0  0  0  0  0  0  0
   12.4638    3.6442   17.0282 H   0  0  0  0  0  0  0  0  0  0  0  0
  1  2  1  0
  2  3  2  0
  3  4  1  0
  4  5  1  0
  5  6  2  0
  6  7  1  0
  7  8  2  0
  8  9  1  0
  9 10  1  0
  9 11  2  0
 11 12  1  0
 12 13  1  0
 13 14  2  0
 13 15  1  0
 15 16  1  0
 16 17  2  0
 16 18  2  0
 16 19  1  0
 19 20  2  0
 20 21  1  0
 21 22  2  0
 22 23  1  0
 23 24  2  0
  4 25  1  0
 25 26  2  0
 25 27  1  0
 27  2  1  0
 11  5  1  0
 24 19  1  0
  1 28  1  0
  1 29  1  0
  1 30  1  0
  6 31  1  0
  7 32  1  0
  8 33  1  0
 10 34  1  0
 10 35  1  0
 10 36  1  0
 12 37  1  0
 15 38  1  0
 15 39  1  0
 20 40  1  0
 21 41  1  0
 22 42  1  0
 23 43  1  0
 24 44  1  0
 27 45  1  0
 27 46  1  0
M  END
>  <Energy>  (115) 
91.95102680790032

>  <compound_id>  (115) 
1458

>  <target_id>  (115) 
1

>  <reference_id>  (115) 
5

>  <inspiration_ids>  (115) 
[5, 117]

>  <energy_score>  (115) 
-33.731763172585204

>  <distance_score>  (115) 
0.578107463650659

>  <path>  (115) 
/opt/xchem-fragalysis-2/maxwin/BulkDock/SCRATCH/505732/C1458-P5/C1458-P5.minimised.mol

>  <scratch_subdir>  (115) 
/opt/xchem-fragalysis-2/maxwin/BulkDock/SCRATCH/505732/C1458-P5

>  <fragmenstein_runtime>  (115) 
4.978351831436157

>  <fragmenstein_outcome>  (115) 
acceptable

>  <fragmenstein_mode>  (115) 
expansion

>  <fragmenstein_error>  (115) 


$$$$
C1458-P117
     RDKit          3D

 46 48  0  0  0  0  0  0  0  0999 V2000
   15.2161    3.4811   16.2796 C   0  0  0  0  0  0  0  0  0  0  0  0
   14.0333    2.6055   16.0607 C   0  0  0  0  0  0  0  0  0  0  0  0
   14.1061    1.3251   15.8650 N   0  0  0  0  0  0  0  0  0  0  0  0
   12.8027    0.8757   15.7991 N   0  0  0  0  0  0  0  0  0  0  0  0
   12.5263   -0.5154   15.7914 C   0  0  0  0  0  0  0  0  0  0  0  0
   11.3515   -0.9520   15.1653 C   0  0  0  0  0  0  0  0  0  0  0  0
   11.0136   -2.2987   15.1321 C   0  0  0  0  0  0  0  0  0  0  0  0
   11.8469   -3.2410   15.7041 C   0  0  0  0  0  0  0  0  0  0  0  0
   13.0487   -2.8596   16.2982 C   0  0  0  0  0  0  0  0  0  0  0  0
   13.8850   -3.9236   16.9448 C   0  0  0  0  0  0  0  0  0  0  0  0
   13.3756   -1.4907   16.3672 C   0  0  0  0  0  0  0  0  0  0  0  0
   14.4842   -1.1710   17.1489 N   0  0  0  0  0  0  0  0  0  0  0  0
   14.6681   -0.0762   18.2451 C   0  0  0  0  0  0  0  0  0  0  0  0
   13.9431    0.7681   18.5999 O   0  0  0  0  0  0  0  0  0  0  0  0
   16.0542   -0.2934   18.7676 C   0  0  0  0  0  0  0  0  0  0  0  0
   16.5018    0.9239   19.9479 S   0  0  0  0  0  0  0  0  0  0  0  0
   16.3429    2.2391   19.3542 O   0  0  0  0  0  0  0  0  0  0  0  0
   17.8001    0.5267   20.4676 O   0  0  0  0  0  0  0  0  0  0  0  0
   15.3585    0.7531   21.2913 C   0  0  0  0  0  0  0  0  0  0  0  0
   15.3931   -0.4066   22.0708 C   0  0  0  0  0  0  0  0  0  0  0  0
   14.5348   -0.5151   23.1639 C   0  0  0  0  0  0  0  0  0  0  0  0
   13.6505    0.5229   23.4680 C   0  0  0  0  0  0  0  0  0  0  0  0
   13.6195    1.6753   22.6824 C   0  0  0  0  0  0  0  0  0  0  0  0
   14.4794    1.7968   21.5926 C   0  0  0  0  0  0  0  0  0  0  0  0
   11.8427    1.9000   15.8714 C   0  0  0  0  0  0  0  0  0  0  0  0
   10.6215    1.8483   15.8508 O   0  0  0  0  0  0  0  0  0  0  0  0
   12.6436    3.1518   16.0556 C   0  0  0  0  0  0  0  0  0  0  0  0
   16.1344    2.8882   16.2822 H   0  0  0  0  0  0  0  0  0  0  0  0
   15.2687    4.2244   15.4801 H   0  0  0  0  0  0  0  0  0  0  0  0
   15.1149    3.9939   17.2395 H   0  0  0  0  0  0  0  0  0  0  0  0
   10.6795   -0.2550   14.6666 H   0  0  0  0  0  0  0  0  0  0  0  0
   10.0838   -2.6095   14.6678 H   0  0  0  0  0  0  0  0  0  0  0  0
   11.5279   -4.2772   15.7160 H   0  0  0  0  0  0  0  0  0  0  0  0
   14.8784   -3.9659   16.4882 H   0  0  0  0  0  0  0  0  0  0  0  0
   13.4145   -4.8992   16.8150 H   0  0  0  0  0  0  0  0  0  0  0  0
   13.9762   -3.7460   18.0212 H   0  0  0  0  0  0  0  0  0  0  0  0
   15.2804   -1.7948   17.1565 H   0  0  0  0  0  0  0  0  0  0  0  0
   16.1342   -1.2774   19.2379 H   0  0  0  0  0  0  0  0  0  0  0  0
   16.7755   -0.2194   17.9474 H   0  0  0  0  0  0  0  0  0  0  0  0
   16.0946   -1.2088   21.8605 H   0  0  0  0  0  0  0  0  0  0  0  0
   14.5412   -1.4125   23.7776 H   0  0  0  0  0  0  0  0  0  0  0  0
   12.9725    0.4221   24.3117 H   0  0  0  0  0  0  0  0  0  0  0  0
   12.9238    2.4768   22.9164 H   0  0  0  0  0  0  0  0  0  0  0  0
   14.4508    2.6977   20.9833 H   0  0  0  0  0  0  0  0  0  0  0  0
   12.5013    3.8353   15.2170 H   0  0  0  0  0  0  0  0  0  0  0  0
   12.4150    3.6218   17.0139 H   0  0  0  0  0  0  0  0  0  0  0  0
  1  2  1  0
  2  3  2  0
  3  4  1  0
  4  5  1  0
  5  6  2  0
  6  7  1  0
  7  8  2  0
  8  9  1  0
  9 10  1  0
  9 11  2  0
 11 12  1  0
 12 13  1  0
 13 14  2  0
 13 15  1  0
 15 16  1  0
 16 17  2  0
 16 18  2  0
 16 19  1  0
 19 20  2  0
 20 21  1  0
 21 22  2  0
 22 23  1  0
 23 24  2  0
  4 25  1  0
 25 26  2  0
 25 27  1  0
 27  2  1  0
 11  5  1  0
 24 19  1  0
  1 28  1  0
  1 29  1  0
  1 30  1  0
  6 31  1  0
  7 32  1  0
  8 33  1  0
 10 34  1  0
 10 35  1  0
 10 36  1  0
 12 37  1  0
 15 38  1  0
 15 39  1  0
 20 40  1  0
 21 41  1  0
 22 42  1  0
 23 43  1  0
 24 44  1  0
 27 45  1  0
 27 46  1  0
M  END
>  <Energy>  (116) 
92.144444697559678

>  <compound_id>  (116) 
1458

>  <target_id>  (116) 
1

>  <reference_id>  (116) 
117

>  <inspiration_ids>  (116) 
[5, 117]

>  <energy_score>  (116) 
-33.53834528292538

>  <distance_score>  (116) 
0.5808311072983545

>  <path>  (116) 
/opt/xchem-fragalysis-2/maxwin/BulkDock/SCRATCH/505732/C1458-P117/C1458-P117.minimised.mol

>  <scratch_subdir>  (116) 
/opt/xchem-fragalysis-2/maxwin/BulkDock/SCRATCH/505732/C1458-P117

>  <fragmenstein_runtime>  (116) 
4.895322799682617

>  <fragmenstein_outcome>  (116) 
acceptable

>  <fragmenstein_mode>  (116) 
expansion

>  <fragmenstein_error>  (116) 


$$$$
C1459-P5
     RDKit          3D

 37 38  0  0  0  0  0  0  0  0999 V2000
   14.7172    5.0225   17.0338 C   0  0  0  0  0  0  0  0  0  0  0  0
   13.6191    4.3940   16.0121 N   0  0  0  0  0  0  0  0  0  0  0  0
   14.9724    4.1654   17.3267 C   0  0  0  0  0  0  0  0  0  0  0  0
   13.1533    3.1303   15.6902 C   0  0  0  0  0  0  0  0  0  0  0  0
   13.8896    2.4907   14.4878 C   0  0  0  0  0  0  0  0  0  0  0  0
   14.8737    1.5748   14.9693 O   0  0  0  0  0  0  0  0  0  0  0  0
   15.0313    0.4300   14.2353 C   0  0  0  0  0  0  0  0  0  0  0  0
   15.5355   -0.6724   14.9375 C   0  0  0  0  0  0  0  0  0  0  0  0
   15.6777   -1.9077   14.3066 C   0  0  0  0  0  0  0  0  0  0  0  0
   15.3457   -2.0284   12.9605 C   0  0  0  0  0  0  0  0  0  0  0  0
   14.8853   -0.9228   12.2610 C   0  0  0  0  0  0  0  0  0  0  0  0
   14.6137   -1.0377   10.9556 F   0  0  0  0  0  0  0  0  0  0  0  0
   14.7285    0.3069   12.8820 C   0  0  0  0  0  0  0  0  0  0  0  0
   12.1595    2.5407   16.2737 N   0  0  0  0  0  0  0  0  0  0  0  0
   11.7445    1.2584   15.9076 C   0  0  0  0  0  0  0  0  0  0  0  0
   10.4980    1.0926   15.3142 C   0  0  0  0  0  0  0  0  0  0  0  0
   10.0407   -0.1832   14.9905 C   0  0  0  0  0  0  0  0  0  0  0  0
   10.8276   -1.3043   15.2537 C   0  0  0  0  0  0  0  0  0  0  0  0
   12.0530   -1.1550   15.8882 C   0  0  0  0  0  0  0  0  0  0  0  0
   12.4929    0.1221   16.2342 C   0  0  0  0  0  0  0  0  0  0  0  0
   14.2325    5.6559   17.9770 H   0  0  0  0  0  0  0  0  0  0  0  0
   14.3195    6.0265   16.5910 H   0  0  0  0  0  0  0  0  0  0  0  0
   15.6776    5.5710   16.4821 H   0  0  0  0  0  0  0  0  0  0  0  0
   14.8126    3.0120   17.2580 H   0  0  0  0  0  0  0  0  0  0  0  0
   14.6375    3.9133   18.4645 H   0  0  0  0  0  0  0  0  0  0  0  0
   16.0698    3.8145   16.9551 H   0  0  0  0  0  0  0  0  0  0  0  0
   14.4006    3.2742   13.9165 H   0  0  0  0  0  0  0  0  0  0  0  0
   13.1312    2.0356   13.8407 H   0  0  0  0  0  0  0  0  0  0  0  0
   15.7963   -0.5708   15.9878 H   0  0  0  0  0  0  0  0  0  0  0  0
   16.0567   -2.7667   14.8534 H   0  0  0  0  0  0  0  0  0  0  0  0
   15.4651   -2.9682   12.4354 H   0  0  0  0  0  0  0  0  0  0  0  0
   14.3887    1.1413   12.2809 H   0  0  0  0  0  0  0  0  0  0  0  0
    9.8874    1.9686   15.1211 H   0  0  0  0  0  0  0  0  0  0  0  0
    9.0797   -0.3083   14.5050 H   0  0  0  0  0  0  0  0  0  0  0  0
   10.4868   -2.2917   14.9505 H   0  0  0  0  0  0  0  0  0  0  0  0
   12.6651   -2.0239   16.1131 H   0  0  0  0  0  0  0  0  0  0  0  0
   13.4278    0.2418   16.7736 H   0  0  0  0  0  0  0  0  0  0  0  0
  1  2  1  0
  2  3  1  0
  2  4  1  0
  4  5  1  0
  5  6  1  0
  6  7  1  0
  7  8  2  0
  8  9  1  0
  9 10  2  0
 10 11  1  0
 11 12  1  0
 11 13  2  0
  4 14  2  3
 14 15  1  0
 15 16  2  0
 16 17  1  0
 17 18  2  0
 18 19  1  0
 19 20  2  0
 13  7  1  0
 20 15  1  0
  1 21  1  0
  1 22  1  0
  1 23  1  0
  3 24  1  0
  3 25  1  0
  3 26  1  0
  5 27  1  0
  5 28  1  0
  8 29  1  0
  9 30  1  0
 10 31  1  0
 13 32  1  0
 16 33  1  0
 17 34  1  0
 18 35  1  0
 19 36  1  0
 20 37  1  0
M  END
>  <Energy>  (117) 
509.04318781830227

>  <compound_id>  (117) 
1459

>  <target_id>  (117) 
1

>  <reference_id>  (117) 
5

>  <inspiration_ids>  (117) 
[5, 122]

>  <energy_score>  (117) 
442.0100853002544

>  <distance_score>  (117) 
3.0577111183083803

>  <path>  (117) 
/opt/xchem-fragalysis-2/maxwin/BulkDock/SCRATCH/505732/C1459-P5/C1459-P5.minimised.mol

>  <scratch_subdir>  (117) 
/opt/xchem-fragalysis-2/maxwin/BulkDock/SCRATCH/505732/C1459-P5

>  <fragmenstein_runtime>  (117) 
21.951829433441162

>  <fragmenstein_outcome>  (117) 
too moved

>  <fragmenstein_mode>  (117) 
expansion

>  <fragmenstein_error>  (117) 


$$$$
C1459-P122
     RDKit          3D

 37 38  0  0  0  0  0  0  0  0999 V2000
   16.1326    3.2681   18.6781 C   0  0  0  0  0  0  0  0  0  0  0  0
   15.8935    2.8677   17.1182 N   0  0  0  0  0  0  0  0  0  0  0  0
   15.2580    3.0025   18.9045 C   0  0  0  0  0  0  0  0  0  0  0  0
   14.8442    2.3836   16.3530 C   0  0  0  0  0  0  0  0  0  0  0  0
   14.8208    0.8281   16.2691 C   0  0  0  0  0  0  0  0  0  0  0  0
   13.7229    0.3152   17.0231 O   0  0  0  0  0  0  0  0  0  0  0  0
   13.5458   -1.0196   16.7843 C   0  0  0  0  0  0  0  0  0  0  0  0
   14.3301   -1.9639   17.4456 C   0  0  0  0  0  0  0  0  0  0  0  0
   14.0326   -3.3213   17.3163 C   0  0  0  0  0  0  0  0  0  0  0  0
   12.9494   -3.7228   16.5358 C   0  0  0  0  0  0  0  0  0  0  0  0
   12.1883   -2.7695   15.8701 C   0  0  0  0  0  0  0  0  0  0  0  0
   11.1346   -3.1570   15.1413 F   0  0  0  0  0  0  0  0  0  0  0  0
   12.4749   -1.4191   15.9922 C   0  0  0  0  0  0  0  0  0  0  0  0
   13.9774    3.1283   15.7408 N   0  0  0  0  0  0  0  0  0  0  0  0
   12.8949    2.5491   15.0744 C   0  0  0  0  0  0  0  0  0  0  0  0
   11.6599    2.4580   15.7234 C   0  0  0  0  0  0  0  0  0  0  0  0
   10.5862    1.8151   15.1123 C   0  0  0  0  0  0  0  0  0  0  0  0
   10.7463    1.2684   13.8399 C   0  0  0  0  0  0  0  0  0  0  0  0
   11.9536    1.4160   13.1592 C   0  0  0  0  0  0  0  0  0  0  0  0
   13.0212    2.0705   13.7702 C   0  0  0  0  0  0  0  0  0  0  0  0
   17.1885    3.5603   18.2757 H   0  0  0  0  0  0  0  0  0  0  0  0
   16.2632    4.4794   18.8806 H   0  0  0  0  0  0  0  0  0  0  0  0
   16.9467    2.5537   19.2724 H   0  0  0  0  0  0  0  0  0  0  0  0
   14.5192    3.9213   19.1855 H   0  0  0  0  0  0  0  0  0  0  0  0
   15.1982    1.9888   19.5640 H   0  0  0  0  0  0  0  0  0  0  0  0
   14.2327    2.5756   18.5470 H   0  0  0  0  0  0  0  0  0  0  0  0
   14.7709    0.5240   15.2171 H   0  0  0  0  0  0  0  0  0  0  0  0
   15.7601    0.4444   16.6877 H   0  0  0  0  0  0  0  0  0  0  0  0
   15.1460   -1.6471   18.0891 H   0  0  0  0  0  0  0  0  0  0  0  0
   14.6308   -4.0594   17.8430 H   0  0  0  0  0  0  0  0  0  0  0  0
   12.6878   -4.7721   16.4495 H   0  0  0  0  0  0  0  0  0  0  0  0
   11.8501   -0.6947   15.4911 H   0  0  0  0  0  0  0  0  0  0  0  0
   11.5560    2.8662   16.7257 H   0  0  0  0  0  0  0  0  0  0  0  0
    9.6434    1.7181   15.6434 H   0  0  0  0  0  0  0  0  0  0  0  0
    9.9385    0.7003   13.3924 H   0  0  0  0  0  0  0  0  0  0  0  0
   12.0785    1.0082   12.1613 H   0  0  0  0  0  0  0  0  0  0  0  0
   13.9686    2.1780   13.2493 H   0  0  0  0  0  0  0  0  0  0  0  0
  1  2  1  0
  2  3  1  0
  2  4  1  0
  4  5  1  0
  5  6  1  0
  6  7  1  0
  7  8  2  0
  8  9  1  0
  9 10  2  0
 10 11  1  0
 11 12  1  0
 11 13  2  0
  4 14  2  3
 14 15  1  0
 15 16  2  0
 16 17  1  0
 17 18  2  0
 18 19  1  0
 19 20  2  0
 13  7  1  0
 20 15  1  0
  1 21  1  0
  1 22  1  0
  1 23  1  0
  3 24  1  0
  3 25  1  0
  3 26  1  0
  5 27  1  0
  5 28  1  0
  8 29  1  0
  9 30  1  0
 10 31  1  0
 13 32  1  0
 16 33  1  0
 17 34  1  0
 18 35  1  0
 19 36  1  0
 20 37  1  0
M  END
>  <Energy>  (118) 
508.86622553227784

>  <compound_id>  (118) 
1459

>  <target_id>  (118) 
1

>  <reference_id>  (118) 
122

>  <inspiration_ids>  (118) 
[5, 122]

>  <energy_score>  (118) 
441.833123014226

>  <distance_score>  (118) 
1.7846967749671163

>  <path>  (118) 
/opt/xchem-fragalysis-2/maxwin/BulkDock/SCRATCH/505732/C1459-P122/C1459-P122.minimised.mol

>  <scratch_subdir>  (118) 
/opt/xchem-fragalysis-2/maxwin/BulkDock/SCRATCH/505732/C1459-P122

>  <fragmenstein_runtime>  (118) 
21.764097452163696

>  <fragmenstein_outcome>  (118) 
too moved

>  <fragmenstein_mode>  (118) 
expansion

>  <fragmenstein_error>  (118) 


$$$$
C1460-P5
     RDKit          3D

 39 40  0  0  0  0  0  0  0  0999 V2000
   18.7379   -3.8592   14.0871 C   0  0  0  0  0  0  0  0  0  0  0  0
   17.7505   -2.8366   14.6017 C   0  0  0  0  0  0  0  0  0  0  0  0
   17.5554   -1.8169   13.9307 O   0  0  0  0  0  0  0  0  0  0  0  0
   17.1257   -3.0491   16.0039 C   0  0  0  0  0  0  0  0  0  0  0  0
   18.0231   -2.4075   17.0665 C   0  0  0  0  0  0  0  0  0  0  0  0
   17.0524   -4.5593   16.3324 C   0  0  0  0  0  0  0  0  0  0  0  0
   15.7038   -2.4869   16.0097 C   0  0  0  0  0  0  0  0  0  0  0  0
   14.6364   -3.2567   16.1546 N   0  0  0  0  0  0  0  0  0  0  0  0
   13.5434   -2.4828   15.8586 C   0  0  0  0  0  0  0  0  0  0  0  0
   12.1881   -2.8250   15.7328 C   0  0  0  0  0  0  0  0  0  0  0  0
   11.7637   -4.0678   15.9928 F   0  0  0  0  0  0  0  0  0  0  0  0
   11.2702   -1.8709   15.2952 C   0  0  0  0  0  0  0  0  0  0  0  0
   11.6798   -0.5641   15.0467 C   0  0  0  0  0  0  0  0  0  0  0  0
   13.0149   -0.1819   15.2212 C   0  0  0  0  0  0  0  0  0  0  0  0
   13.9318   -1.1729   15.6088 C   0  0  0  0  0  0  0  0  0  0  0  0
   15.2967   -1.1704   15.8371 N   0  0  0  0  0  0  0  0  0  0  0  0
   16.1025    0.0366   15.8374 C   0  0  0  0  0  0  0  0  0  0  0  0
   16.1959    0.7038   17.2065 C   0  0  0  0  0  0  0  0  0  0  0  0
   14.9315    1.4904   17.5437 C   0  0  0  0  0  0  0  0  0  0  0  0
   14.9252    2.7861   16.8913 N   0  0  0  0  0  0  0  0  0  0  0  0
   14.1109    0.9636   18.2400 O   0  0  0  0  0  0  0  0  0  0  0  0
   18.2467   -4.8199   13.9237 H   0  0  0  0  0  0  0  0  0  0  0  0
   19.1446   -3.5211   13.1290 H   0  0  0  0  0  0  0  0  0  0  0  0
   19.5656   -3.9639   14.7926 H   0  0  0  0  0  0  0  0  0  0  0  0
   17.5395   -2.4048   18.0500 H   0  0  0  0  0  0  0  0  0  0  0  0
   18.2964   -1.3775   16.8248 H   0  0  0  0  0  0  0  0  0  0  0  0
   18.9715   -2.9499   17.1623 H   0  0  0  0  0  0  0  0  0  0  0  0
   18.0468   -5.0133   16.4109 H   0  0  0  0  0  0  0  0  0  0  0  0
   16.5459   -4.7357   17.2890 H   0  0  0  0  0  0  0  0  0  0  0  0
   16.5070   -5.1059   15.5550 H   0  0  0  0  0  0  0  0  0  0  0  0
   10.2388   -2.1601   15.1216 H   0  0  0  0  0  0  0  0  0  0  0  0
   10.9506    0.1647   14.6980 H   0  0  0  0  0  0  0  0  0  0  0  0
   13.3163    0.8425   15.0317 H   0  0  0  0  0  0  0  0  0  0  0  0
   15.6927    0.7153   15.0814 H   0  0  0  0  0  0  0  0  0  0  0  0
   17.1078   -0.2084   15.5022 H   0  0  0  0  0  0  0  0  0  0  0  0
   17.0568    1.3824   17.2365 H   0  0  0  0  0  0  0  0  0  0  0  0
   16.3624   -0.0331   18.0013 H   0  0  0  0  0  0  0  0  0  0  0  0
   15.7536    2.8580   16.2745 H   0  0  0  0  0  0  0  0  0  0  0  0
   15.8542    2.9552   16.4664 H   0  0  0  0  0  0  0  0  0  0  0  0
  1  2  1  0
  2  3  2  0
  2  4  1  0
  4  5  1  0
  4  6  1  0
  4  7  1  0
  7  8  2  0
  8  9  1  0
  9 10  2  0
 10 11  1  0
 10 12  1  0
 12 13  2  0
 13 14  1  0
 14 15  2  0
 15 16  1  0
 16 17  1  0
 17 18  1  0
 18 19  1  0
 19 20  1  0
 19 21  2  0
 16  7  1  0
 15  9  1  0
  1 22  1  0
  1 23  1  0
  1 24  1  0
  5 25  1  0
  5 26  1  0
  5 27  1  0
  6 28  1  0
  6 29  1  0
  6 30  1  0
 12 31  1  0
 13 32  1  0
 14 33  1  0
 17 34  1  0
 17 35  1  0
 18 36  1  0
 18 37  1  0
 20 38  1  0
 20 39  1  0
M  END
>  <Energy>  (119) 
210.80967408733349

>  <compound_id>  (119) 
1460

>  <target_id>  (119) 
1

>  <reference_id>  (119) 
5

>  <inspiration_ids>  (119) 
[5, 124]

>  <energy_score>  (119) 
136.21741801986292

>  <distance_score>  (119) 
1.4067575321988883

>  <path>  (119) 
/opt/xchem-fragalysis-2/maxwin/BulkDock/SCRATCH/505732/C1460-P5/C1460-P5.minimised.mol

>  <scratch_subdir>  (119) 
/opt/xchem-fragalysis-2/maxwin/BulkDock/SCRATCH/505732/C1460-P5

>  <fragmenstein_runtime>  (119) 
75.06573367118835

>  <fragmenstein_outcome>  (119) 
too moved

>  <fragmenstein_mode>  (119) 
expansion

>  <fragmenstein_error>  (119) 


$$$$
C1460-P124
     RDKit          3D

 39 40  0  0  0  0  0  0  0  0999 V2000
   17.9170   -5.3043   15.1823 C   0  0  0  0  0  0  0  0  0  0  0  0
   18.2700   -3.8928   15.5860 C   0  0  0  0  0  0  0  0  0  0  0  0
   19.0741   -3.2443   14.9069 O   0  0  0  0  0  0  0  0  0  0  0  0
   17.6046   -3.2975   16.8414 C   0  0  0  0  0  0  0  0  0  0  0  0
   18.4453   -2.1438   17.4021 C   0  0  0  0  0  0  0  0  0  0  0  0
   17.5592   -4.3641   17.9615 C   0  0  0  0  0  0  0  0  0  0  0  0
   16.1926   -2.8782   16.4581 C   0  0  0  0  0  0  0  0  0  0  0  0
   15.1235   -3.5491   16.8532 N   0  0  0  0  0  0  0  0  0  0  0  0
   14.0487   -3.0150   16.1901 C   0  0  0  0  0  0  0  0  0  0  0  0
   12.7029   -3.4149   16.1612 C   0  0  0  0  0  0  0  0  0  0  0  0
   12.2844   -4.4564   16.8888 F   0  0  0  0  0  0  0  0  0  0  0  0
   11.8017   -2.7696   15.3140 C   0  0  0  0  0  0  0  0  0  0  0  0
   12.2249   -1.7009   14.5294 C   0  0  0  0  0  0  0  0  0  0  0  0
   13.5513   -1.2539   14.5684 C   0  0  0  0  0  0  0  0  0  0  0  0
   14.4497   -1.9476   15.3950 C   0  0  0  0  0  0  0  0  0  0  0  0
   15.8096   -1.8383   15.6190 N   0  0  0  0  0  0  0  0  0  0  0  0
   16.6525   -0.8689   14.9416 C   0  0  0  0  0  0  0  0  0  0  0  0
   16.8853    0.4162   15.7281 C   0  0  0  0  0  0  0  0  0  0  0  0
   15.7599    1.4247   15.5230 C   0  0  0  0  0  0  0  0  0  0  0  0
   15.9092    2.1413   14.2716 N   0  0  0  0  0  0  0  0  0  0  0  0
   14.9089    1.4919   16.3637 O   0  0  0  0  0  0  0  0  0  0  0  0
   16.8350   -5.4451   15.2009 H   0  0  0  0  0  0  0  0  0  0  0  0
   18.2736   -5.4903   14.1654 H   0  0  0  0  0  0  0  0  0  0  0  0
   18.4026   -6.0150   15.8550 H   0  0  0  0  0  0  0  0  0  0  0  0
   17.9174   -1.6192   18.2069 H   0  0  0  0  0  0  0  0  0  0  0  0
   18.7244   -1.4052   16.6476 H   0  0  0  0  0  0  0  0  0  0  0  0
   19.3933   -2.5140   17.8121 H   0  0  0  0  0  0  0  0  0  0  0  0
   18.5640   -4.7383   18.1915 H   0  0  0  0  0  0  0  0  0  0  0  0
   17.1339   -3.9511   18.8844 H   0  0  0  0  0  0  0  0  0  0  0  0
   16.9506   -5.2331   17.6912 H   0  0  0  0  0  0  0  0  0  0  0  0
   10.7756   -3.1172   15.2582 H   0  0  0  0  0  0  0  0  0  0  0  0
   11.5095   -1.1921   13.8842 H   0  0  0  0  0  0  0  0  0  0  0  0
   13.8528   -0.4056   13.9623 H   0  0  0  0  0  0  0  0  0  0  0  0
   16.2098   -0.6655   13.9600 H   0  0  0  0  0  0  0  0  0  0  0  0
   17.6069   -1.3486   14.7289 H   0  0  0  0  0  0  0  0  0  0  0  0
   17.8319    0.8776   15.4219 H   0  0  0  0  0  0  0  0  0  0  0  0
   16.9723    0.2274   16.8040 H   0  0  0  0  0  0  0  0  0  0  0  0
   16.8297    1.9092   13.8566 H   0  0  0  0  0  0  0  0  0  0  0  0
   16.7058    1.7400   13.7450 H   0  0  0  0  0  0  0  0  0  0  0  0
  1  2  1  0
  2  3  2  0
  2  4  1  0
  4  5  1  0
  4  6  1  0
  4  7  1  0
  7  8  2  0
  8  9  1  0
  9 10  2  0
 10 11  1  0
 10 12  1  0
 12 13  2  0
 13 14  1  0
 14 15  2  0
 15 16  1  0
 16 17  1  0
 17 18  1  0
 18 19  1  0
 19 20  1  0
 19 21  2  0
 16  7  1  0
 15  9  1  0
  1 22  1  0
  1 23  1  0
  1 24  1  0
  5 25  1  0
  5 26  1  0
  5 27  1  0
  6 28  1  0
  6 29  1  0
  6 30  1  0
 12 31  1  0
 13 32  1  0
 14 33  1  0
 17 34  1  0
 17 35  1  0
 18 36  1  0
 18 37  1  0
 20 38  1  0
 20 39  1  0
M  END
>  <Energy>  (120) 
206.01480804327147

>  <compound_id>  (120) 
1460

>  <target_id>  (120) 
1

>  <reference_id>  (120) 
124

>  <inspiration_ids>  (120) 
[5, 124]

>  <energy_score>  (120) 
131.42255197580158

>  <distance_score>  (120) 
2.3356568666057695

>  <path>  (120) 
/opt/xchem-fragalysis-2/maxwin/BulkDock/SCRATCH/505732/C1460-P124/C1460-P124.minimised.mol

>  <scratch_subdir>  (120) 
/opt/xchem-fragalysis-2/maxwin/BulkDock/SCRATCH/505732/C1460-P124

>  <fragmenstein_runtime>  (120) 
74.83852958679199

>  <fragmenstein_outcome>  (120) 
too moved

>  <fragmenstein_mode>  (120) 
expansion

>  <fragmenstein_error>  (120) 


$$$$
C1461-P5
     RDKit          3D

 37 37  0  0  0  0  0  0  0  0999 V2000
   19.1473   -0.6076   15.5066 C   0  0  0  0  0  0  0  0  0  0  0  0
   18.8727   -1.1570   16.8895 C   0  0  0  0  0  0  0  0  0  0  0  0
   17.6020   -2.4080   16.9013 S   0  0  0  0  0  0  0  0  0  0  0  0
   17.5631   -2.9609   18.2373 O   0  0  0  0  0  0  0  0  0  0  0  0
   17.7777   -3.2576   15.7445 O   0  0  0  0  0  0  0  0  0  0  0  0
   16.2145   -1.4612   16.6433 N   0  0  0  0  0  0  0  0  0  0  0  0
   14.9612   -2.1788   16.6103 C   0  0  0  0  0  0  0  0  0  0  0  0
   14.5853   -3.0579   17.6272 C   0  0  0  0  0  0  0  0  0  0  0  0
   13.3689   -3.7237   17.5449 C   0  0  0  0  0  0  0  0  0  0  0  0
   12.5348   -3.4869   16.4622 C   0  0  0  0  0  0  0  0  0  0  0  0
   11.3846   -4.1521   16.3659 F   0  0  0  0  0  0  0  0  0  0  0  0
   12.8496   -2.5580   15.4839 C   0  0  0  0  0  0  0  0  0  0  0  0
   14.0533   -1.8691   15.5760 C   0  0  0  0  0  0  0  0  0  0  0  0
   14.4424   -0.8958   14.6853 O   0  0  0  0  0  0  0  0  0  0  0  0
   13.3904   -0.0653   14.1952 C   0  0  0  0  0  0  0  0  0  0  0  0
   12.5681    0.7190   15.2543 C   0  0  0  0  0  0  0  0  0  0  0  0
   11.5688    0.3024   15.7197 O   0  0  0  0  0  0  0  0  0  0  0  0
   13.2830    2.0447   15.4813 N   0  0  0  0  0  0  0  0  0  0  0  0
   14.2718    1.9442   16.6132 C   0  0  0  0  0  0  0  0  0  0  0  0
   12.8798    3.2431   16.2779 C   0  0  0  0  0  0  0  0  0  0  0  0
   18.2593   -0.1339   15.0779 H   0  0  0  0  0  0  0  0  0  0  0  0
   19.4709   -1.3966   14.8206 H   0  0  0  0  0  0  0  0  0  0  0  0
   19.9412    0.1445   15.5513 H   0  0  0  0  0  0  0  0  0  0  0  0
   19.7770   -1.6317   17.2849 H   0  0  0  0  0  0  0  0  0  0  0  0
   18.5745   -0.3689   17.5875 H   0  0  0  0  0  0  0  0  0  0  0  0
   16.3035   -0.9703   15.7474 H   0  0  0  0  0  0  0  0  0  0  0  0
   15.2172   -3.2378   18.4911 H   0  0  0  0  0  0  0  0  0  0  0  0
   13.0584   -4.4135   18.3229 H   0  0  0  0  0  0  0  0  0  0  0  0
   12.1405   -2.4067   14.6775 H   0  0  0  0  0  0  0  0  0  0  0  0
   13.8601    0.6660   13.5259 H   0  0  0  0  0  0  0  0  0  0  0  0
   12.7057   -0.6294   13.5507 H   0  0  0  0  0  0  0  0  0  0  0  0
   14.9183    1.0998   16.3422 H   0  0  0  0  0  0  0  0  0  0  0  0
   13.8303    1.6182   17.5685 H   0  0  0  0  0  0  0  0  0  0  0  0
   14.9909    2.7738   16.7010 H   0  0  0  0  0  0  0  0  0  0  0  0
   13.5949    4.0787   16.2562 H   0  0  0  0  0  0  0  0  0  0  0  0
   12.4364    3.0290   17.2613 H   0  0  0  0  0  0  0  0  0  0  0  0
   12.0174    3.6301   15.7146 H   0  0  0  0  0  0  0  0  0  0  0  0
  1  2  1  0
  2  3  1  0
  3  4  2  0
  3  5  2  0
  3  6  1  0
  6  7  1  0
  7  8  2  0
  8  9  1  0
  9 10  2  0
 10 11  1  0
 10 12  1  0
 12 13  2  0
 13 14  1  0
 14 15  1  0
 15 16  1  0
 16 17  2  0
 16 18  1  0
 18 19  1  0
 18 20  1  0
 13  7  1  0
  1 21  1  0
  1 22  1  0
  1 23  1  0
  2 24  1  0
  2 25  1  0
  6 26  1  0
  8 27  1  0
  9 28  1  0
 12 29  1  0
 15 30  1  0
 15 31  1  0
 19 32  1  0
 19 33  1  0
 19 34  1  0
 20 35  1  0
 20 36  1  0
 20 37  1  0
M  END
>  <Energy>  (121) 
67.785970158720048

>  <compound_id>  (121) 
1461

>  <target_id>  (121) 
1

>  <reference_id>  (121) 
5

>  <inspiration_ids>  (121) 
[5, 146]

>  <energy_score>  (121) 
40.75623171180513

>  <distance_score>  (121) 
1.9701351948080355

>  <path>  (121) 
/opt/xchem-fragalysis-2/maxwin/BulkDock/SCRATCH/505732/C1461-P5/C1461-P5.minimised.mol

>  <scratch_subdir>  (121) 
/opt/xchem-fragalysis-2/maxwin/BulkDock/SCRATCH/505732/C1461-P5

>  <fragmenstein_runtime>  (121) 
7.989565372467041

>  <fragmenstein_outcome>  (121) 
too moved

>  <fragmenstein_mode>  (121) 
expansion

>  <fragmenstein_error>  (121) 


$$$$
C1461-P146
     RDKit          3D

 37 37  0  0  0  0  0  0  0  0999 V2000
   19.1818   -0.3693   16.6478 C   0  0  0  0  0  0  0  0  0  0  0  0
   18.7500   -1.4817   15.7329 C   0  0  0  0  0  0  0  0  0  0  0  0
   17.5637   -2.5950   16.4482 S   0  0  0  0  0  0  0  0  0  0  0  0
   18.0528   -3.0554   17.7302 O   0  0  0  0  0  0  0  0  0  0  0  0
   17.1666   -3.5221   15.4078 O   0  0  0  0  0  0  0  0  0  0  0  0
   16.2824   -1.5434   16.8015 N   0  0  0  0  0  0  0  0  0  0  0  0
   14.9987   -2.1721   16.6797 C   0  0  0  0  0  0  0  0  0  0  0  0
   14.6105   -3.0796   17.6758 C   0  0  0  0  0  0  0  0  0  0  0  0
   13.3964   -3.7368   17.5630 C   0  0  0  0  0  0  0  0  0  0  0  0
   12.5938   -3.4713   16.4646 C   0  0  0  0  0  0  0  0  0  0  0  0
   11.4213   -4.0922   16.3529 F   0  0  0  0  0  0  0  0  0  0  0  0
   12.9701   -2.5851   15.4629 C   0  0  0  0  0  0  0  0  0  0  0  0
   14.1902   -1.9250   15.5520 C   0  0  0  0  0  0  0  0  0  0  0  0
   14.6728   -1.0352   14.6297 O   0  0  0  0  0  0  0  0  0  0  0  0
   13.8683   -0.7096   13.5030 C   0  0  0  0  0  0  0  0  0  0  0  0
   12.7364    0.3097   13.7873 C   0  0  0  0  0  0  0  0  0  0  0  0
   11.8432    0.0901   14.5237 O   0  0  0  0  0  0  0  0  0  0  0  0
   13.0208    1.5283   12.9202 N   0  0  0  0  0  0  0  0  0  0  0  0
   13.8516    2.5425   13.6610 C   0  0  0  0  0  0  0  0  0  0  0  0
   12.2069    2.7538   12.6703 C   0  0  0  0  0  0  0  0  0  0  0  0
   19.6003   -0.7601   17.5806 H   0  0  0  0  0  0  0  0  0  0  0  0
   18.3440    0.2847   16.9081 H   0  0  0  0  0  0  0  0  0  0  0  0
   19.9479    0.2454   16.1650 H   0  0  0  0  0  0  0  0  0  0  0  0
   18.3117   -1.0846   14.8116 H   0  0  0  0  0  0  0  0  0  0  0  0
   19.6145   -2.0942   15.4553 H   0  0  0  0  0  0  0  0  0  0  0  0
   16.4305   -1.1841   17.7462 H   0  0  0  0  0  0  0  0  0  0  0  0
   15.2538   -3.2906   18.5262 H   0  0  0  0  0  0  0  0  0  0  0  0
   13.0689   -4.4468   18.3159 H   0  0  0  0  0  0  0  0  0  0  0  0
   12.2774   -2.4481   14.6412 H   0  0  0  0  0  0  0  0  0  0  0  0
   13.4468   -1.6003   13.0225 H   0  0  0  0  0  0  0  0  0  0  0  0
   14.5519   -0.2887   12.7563 H   0  0  0  0  0  0  0  0  0  0  0  0
   14.6964    1.9663   14.0679 H   0  0  0  0  0  0  0  0  0  0  0  0
   13.3842    2.9575   14.5667 H   0  0  0  0  0  0  0  0  0  0  0  0
   14.3463    3.2905   13.0222 H   0  0  0  0  0  0  0  0  0  0  0  0
   11.3674    2.3677   12.0721 H   0  0  0  0  0  0  0  0  0  0  0  0
   12.6669    3.5013   12.0072 H   0  0  0  0  0  0  0  0  0  0  0  0
   11.6905    3.1627   13.5528 H   0  0  0  0  0  0  0  0  0  0  0  0
  1  2  1  0
  2  3  1  0
  3  4  2  0
  3  5  2  0
  3  6  1  0
  6  7  1  0
  7  8  2  0
  8  9  1  0
  9 10  2  0
 10 11  1  0
 10 12  1  0
 12 13  2  0
 13 14  1  0
 14 15  1  0
 15 16  1  0
 16 17  2  0
 16 18  1  0
 18 19  1  0
 18 20  1  0
 13  7  1  0
  1 21  1  0
  1 22  1  0
  1 23  1  0
  2 24  1  0
  2 25  1  0
  6 26  1  0
  8 27  1  0
  9 28  1  0
 12 29  1  0
 15 30  1  0
 15 31  1  0
 19 32  1  0
 19 33  1  0
 19 34  1  0
 20 35  1  0
 20 36  1  0
 20 37  1  0
M  END
>  <Energy>  (122) 
69.664965055366181

>  <compound_id>  (122) 
1461

>  <target_id>  (122) 
1

>  <reference_id>  (122) 
146

>  <inspiration_ids>  (122) 
[5, 146]

>  <energy_score>  (122) 
42.63522660845115

>  <distance_score>  (122) 
2.626746010332299

>  <path>  (122) 
/opt/xchem-fragalysis-2/maxwin/BulkDock/SCRATCH/505732/C1461-P146/C1461-P146.minimised.mol

>  <scratch_subdir>  (122) 
/opt/xchem-fragalysis-2/maxwin/BulkDock/SCRATCH/505732/C1461-P146

>  <fragmenstein_runtime>  (122) 
7.663243532180786

>  <fragmenstein_outcome>  (122) 
too moved

>  <fragmenstein_mode>  (122) 
expansion

>  <fragmenstein_error>  (122) 


$$$$
C1464-P6
     RDKit          3D

 49 51  0  0  0  0  0  0  0  0999 V2000
   14.5348    3.1005   16.4297 C   0  0  0  0  0  0  0  0  0  0  0  0
   13.7112    3.0655   15.1641 N   0  0  0  0  0  0  0  0  0  0  0  0
   14.3929    4.3803   14.9870 C   0  0  0  0  0  0  0  0  0  0  0  0
   12.2600    2.7370   15.4618 C   0  0  0  0  0  0  0  0  0  0  0  0
   11.3505    3.4482   15.7012 O   0  0  0  0  0  0  0  0  0  0  0  0
   12.0618    1.2109   15.2987 C   0  0  0  0  0  0  0  0  0  0  0  0
   13.1597    0.3824   15.6523 O   0  0  0  0  0  0  0  0  0  0  0  0
   12.9634   -0.9682   15.6381 C   0  0  0  0  0  0  0  0  0  0  0  0
   11.7311   -1.5686   15.4191 C   0  0  0  0  0  0  0  0  0  0  0  0
   11.6023   -2.9316   15.5950 C   0  0  0  0  0  0  0  0  0  0  0  0
   10.4685   -3.5130   15.2043 F   0  0  0  0  0  0  0  0  0  0  0  0
   12.6270   -3.6919   16.1287 C   0  0  0  0  0  0  0  0  0  0  0  0
   13.8950   -3.1271   16.2125 C   0  0  0  0  0  0  0  0  0  0  0  0
   14.0931   -1.7819   15.8475 C   0  0  0  0  0  0  0  0  0  0  0  0
   15.5130   -1.3011   15.4620 C   0  0  0  0  0  0  0  0  0  0  0  0
   15.6092   -1.0632   13.9259 C   0  0  0  0  0  0  0  0  0  0  0  0
   16.0473   -2.0813   13.0641 C   0  0  0  0  0  0  0  0  0  0  0  0
   16.0891   -1.8976   11.6737 C   0  0  0  0  0  0  0  0  0  0  0  0
   15.6922   -0.6875   11.1149 C   0  0  0  0  0  0  0  0  0  0  0  0
   15.2635    0.3394   11.9480 C   0  0  0  0  0  0  0  0  0  0  0  0
   15.2300    0.1524   13.3345 C   0  0  0  0  0  0  0  0  0  0  0  0
   15.9553   -0.1392   16.2611 N   0  0  0  0  0  0  0  0  0  0  0  0
   17.4100    0.1111   16.1187 C   0  0  0  0  0  0  0  0  0  0  0  0
   17.4743    0.3366   17.6487 C   0  0  0  0  0  0  0  0  0  0  0  0
   17.3959    1.7063   18.1136 O   0  0  0  0  0  0  0  0  0  0  0  0
   16.1714   -0.4990   17.6806 C   0  0  0  0  0  0  0  0  0  0  0  0
   15.6213    3.0275   16.2725 H   0  0  0  0  0  0  0  0  0  0  0  0
   14.2901    2.1718   16.9628 H   0  0  0  0  0  0  0  0  0  0  0  0
   14.2287    3.8666   17.1606 H   0  0  0  0  0  0  0  0  0  0  0  0
   15.4758    4.3305   14.7989 H   0  0  0  0  0  0  0  0  0  0  0  0
   13.9864    4.7354   14.0280 H   0  0  0  0  0  0  0  0  0  0  0  0
   14.0717    5.1738   15.6796 H   0  0  0  0  0  0  0  0  0  0  0  0
   11.7974    1.0448   14.2468 H   0  0  0  0  0  0  0  0  0  0  0  0
   11.2027    0.9725   15.9383 H   0  0  0  0  0  0  0  0  0  0  0  0
   10.8587   -1.0303   15.0671 H   0  0  0  0  0  0  0  0  0  0  0  0
   12.4700   -4.7440   16.3417 H   0  0  0  0  0  0  0  0  0  0  0  0
   14.7430   -3.7646   16.4431 H   0  0  0  0  0  0  0  0  0  0  0  0
   16.1984   -2.1367   15.6719 H   0  0  0  0  0  0  0  0  0  0  0  0
   16.3560   -3.0358   13.4799 H   0  0  0  0  0  0  0  0  0  0  0  0
   16.4200   -2.7121   11.0353 H   0  0  0  0  0  0  0  0  0  0  0  0
   15.7137   -0.5473   10.0388 H   0  0  0  0  0  0  0  0  0  0  0  0
   14.9546    1.2925   11.5277 H   0  0  0  0  0  0  0  0  0  0  0  0
   14.9060    0.9790   13.9610 H   0  0  0  0  0  0  0  0  0  0  0  0
   17.6572    0.9861   15.5097 H   0  0  0  0  0  0  0  0  0  0  0  0
   18.0204   -0.7359   15.7808 H   0  0  0  0  0  0  0  0  0  0  0  0
   18.3242   -0.1603   18.1296 H   0  0  0  0  0  0  0  0  0  0  0  0
   17.1455    1.6330   19.0500 H   0  0  0  0  0  0  0  0  0  0  0  0
   15.3968   -0.1289   18.3595 H   0  0  0  0  0  0  0  0  0  0  0  0
   16.3468   -1.5607   17.8956 H   0  0  0  0  0  0  0  0  0  0  0  0
  1  2  1  0
  2  3  1  0
  2  4  1  0
  4  5  2  0
  4  6  1  0
  6  7  1  0
  7  8  1  0
  8  9  2  0
  9 10  1  0
 10 11  1  0
 10 12  2  0
 12 13  1  0
 13 14  2  0
 14 15  1  0
 15 16  1  0
 16 17  2  0
 17 18  1  0
 18 19  2  0
 19 20  1  0
 20 21  2  0
 15 22  1  0
 22 23  1  0
 23 24  1  0
 24 25  1  0
 24 26  1  0
 14  8  1  0
 21 16  1  0
 26 22  1  0
  1 27  1  0
  1 28  1  0
  1 29  1  0
  3 30  1  0
  3 31  1  0
  3 32  1  0
  6 33  1  0
  6 34  1  0
  9 35  1  0
 12 36  1  0
 13 37  1  0
 15 38  1  0
 17 39  1  0
 18 40  1  0
 19 41  1  0
 20 42  1  0
 21 43  1  0
 23 44  1  0
 23 45  1  0
 24 46  1  0
 25 47  1  0
 26 48  1  0
 26 49  1  0
M  END
>  <Energy>  (123) 
194.12765924729834

>  <compound_id>  (123) 
1464

>  <target_id>  (123) 
1

>  <reference_id>  (123) 
6

>  <inspiration_ids>  (123) 
[6, 4]

>  <energy_score>  (123) 
37.46965238676083

>  <distance_score>  (123) 
1.5978644425255337

>  <path>  (123) 
/opt/xchem-fragalysis-2/maxwin/BulkDock/SCRATCH/505732/C1464-P6/C1464-P6.minimised.mol

>  <scratch_subdir>  (123) 
/opt/xchem-fragalysis-2/maxwin/BulkDock/SCRATCH/505732/C1464-P6

>  <fragmenstein_runtime>  (123) 
7.7647154331207275

>  <fragmenstein_outcome>  (123) 
too moved

>  <fragmenstein_mode>  (123) 
expansion

>  <fragmenstein_error>  (123) 


$$$$
C1464-P4
     RDKit          3D

 49 51  0  0  0  0  0  0  0  0999 V2000
   14.4067    4.0705   16.3138 C   0  0  0  0  0  0  0  0  0  0  0  0
   14.9306    3.4263   15.0588 N   0  0  0  0  0  0  0  0  0  0  0  0
   15.2063    4.8595   14.7421 C   0  0  0  0  0  0  0  0  0  0  0  0
   13.9084    2.4559   14.4669 C   0  0  0  0  0  0  0  0  0  0  0  0
   13.0498    2.6394   13.6804 O   0  0  0  0  0  0  0  0  0  0  0  0
   14.2411    1.0769   15.0810 C   0  0  0  0  0  0  0  0  0  0  0  0
   13.6840    0.0341   14.2922 O   0  0  0  0  0  0  0  0  0  0  0  0
   13.4798   -1.1546   14.9176 C   0  0  0  0  0  0  0  0  0  0  0  0
   12.1827   -1.6433   14.8125 C   0  0  0  0  0  0  0  0  0  0  0  0
   11.8331   -2.8150   15.4477 C   0  0  0  0  0  0  0  0  0  0  0  0
   10.6130   -3.3104   15.2436 F   0  0  0  0  0  0  0  0  0  0  0  0
   12.7355   -3.4764   16.2628 C   0  0  0  0  0  0  0  0  0  0  0  0
   14.0701   -3.0582   16.2622 C   0  0  0  0  0  0  0  0  0  0  0  0
   14.4808   -1.9579   15.4721 C   0  0  0  0  0  0  0  0  0  0  0  0
   15.9639   -1.8318   15.0255 C   0  0  0  0  0  0  0  0  0  0  0  0
   16.0919   -1.4074   13.5267 C   0  0  0  0  0  0  0  0  0  0  0  0
   15.5993   -2.2422   12.5107 C   0  0  0  0  0  0  0  0  0  0  0  0
   15.6214   -1.8591   11.1650 C   0  0  0  0  0  0  0  0  0  0  0  0
   16.1042   -0.6127   10.7954 C   0  0  0  0  0  0  0  0  0  0  0  0
   16.5913    0.2374   11.7765 C   0  0  0  0  0  0  0  0  0  0  0  0
   16.6053   -0.1654   13.1177 C   0  0  0  0  0  0  0  0  0  0  0  0
   16.7448   -0.9835   15.9615 N   0  0  0  0  0  0  0  0  0  0  0  0
   18.2188   -1.2106   15.7862 C   0  0  0  0  0  0  0  0  0  0  0  0
   18.3393   -1.0853   17.3261 C   0  0  0  0  0  0  0  0  0  0  0  0
   18.5273    0.2514   17.8500 O   0  0  0  0  0  0  0  0  0  0  0  0
   16.8850   -1.6170   17.3092 C   0  0  0  0  0  0  0  0  0  0  0  0
   15.1586    4.5779   16.9382 H   0  0  0  0  0  0  0  0  0  0  0  0
   14.0941    3.2289   16.9488 H   0  0  0  0  0  0  0  0  0  0  0  0
   13.4678    4.6314   16.1804 H   0  0  0  0  0  0  0  0  0  0  0  0
   15.6324    4.8052   13.7290 H   0  0  0  0  0  0  0  0  0  0  0  0
   16.0113    5.3233   15.3314 H   0  0  0  0  0  0  0  0  0  0  0  0
   14.3164    5.4887   14.5839 H   0  0  0  0  0  0  0  0  0  0  0  0
   13.8574    1.0580   16.0982 H   0  0  0  0  0  0  0  0  0  0  0  0
   15.3235    0.9895   15.1338 H   0  0  0  0  0  0  0  0  0  0  0  0
   11.4413   -1.1223   14.2144 H   0  0  0  0  0  0  0  0  0  0  0  0
   12.4296   -4.3772   16.7874 H   0  0  0  0  0  0  0  0  0  0  0  0
   14.8068   -3.6835   16.7585 H   0  0  0  0  0  0  0  0  0  0  0  0
   16.3742   -2.8542   15.0440 H   0  0  0  0  0  0  0  0  0  0  0  0
   15.1392   -3.1896   12.7643 H   0  0  0  0  0  0  0  0  0  0  0  0
   15.2223   -2.5319   10.4164 H   0  0  0  0  0  0  0  0  0  0  0  0
   16.0937   -0.3044    9.7552 H   0  0  0  0  0  0  0  0  0  0  0  0
   16.9708    1.2190   11.5054 H   0  0  0  0  0  0  0  0  0  0  0  0
   17.0058    0.5365   13.8439 H   0  0  0  0  0  0  0  0  0  0  0  0
   18.7401   -0.4321   15.2216 H   0  0  0  0  0  0  0  0  0  0  0  0
   18.5189   -2.1928   15.3992 H   0  0  0  0  0  0  0  0  0  0  0  0
   19.0653   -1.7660   17.7811 H   0  0  0  0  0  0  0  0  0  0  0  0
   17.8699    0.7777   17.3582 H   0  0  0  0  0  0  0  0  0  0  0  0
   16.2235   -1.2008   18.0748 H   0  0  0  0  0  0  0  0  0  0  0  0
   16.8359   -2.7121   17.3466 H   0  0  0  0  0  0  0  0  0  0  0  0
  1  2  1  0
  2  3  1  0
  2  4  1  0
  4  5  2  0
  4  6  1  0
  6  7  1  0
  7  8  1  0
  8  9  2  0
  9 10  1  0
 10 11  1  0
 10 12  2  0
 12 13  1  0
 13 14  2  0
 14 15  1  0
 15 16  1  0
 16 17  2  0
 17 18  1  0
 18 19  2  0
 19 20  1  0
 20 21  2  0
 15 22  1  0
 22 23  1  0
 23 24  1  0
 24 25  1  0
 24 26  1  0
 14  8  1  0
 21 16  1  0
 26 22  1  0
  1 27  1  0
  1 28  1  0
  1 29  1  0
  3 30  1  0
  3 31  1  0
  3 32  1  0
  6 33  1  0
  6 34  1  0
  9 35  1  0
 12 36  1  0
 13 37  1  0
 15 38  1  0
 17 39  1  0
 18 40  1  0
 19 41  1  0
 20 42  1  0
 21 43  1  0
 23 44  1  0
 23 45  1  0
 24 46  1  0
 25 47  1  0
 26 48  1  0
 26 49  1  0
M  END
>  <Energy>  (124) 
197.80392508148779

>  <compound_id>  (124) 
1464

>  <target_id>  (124) 
1

>  <reference_id>  (124) 
4

>  <inspiration_ids>  (124) 
[6, 4]

>  <energy_score>  (124) 
41.14591822095164

>  <distance_score>  (124) 
1.703470846662308

>  <path>  (124) 
/opt/xchem-fragalysis-2/maxwin/BulkDock/SCRATCH/505732/C1464-P4/C1464-P4.minimised.mol

>  <scratch_subdir>  (124) 
/opt/xchem-fragalysis-2/maxwin/BulkDock/SCRATCH/505732/C1464-P4

>  <fragmenstein_runtime>  (124) 
7.86345100402832

>  <fragmenstein_outcome>  (124) 
too moved

>  <fragmenstein_mode>  (124) 
expansion

>  <fragmenstein_error>  (124) 


$$$$
C1465-P6
     RDKit          3D

 46 48  0  0  0  0  0  0  0  0999 V2000
   14.6262    0.2615   13.1152 C   0  0  0  0  0  0  0  0  0  0  0  0
   14.6240   -0.3829   14.2958 C   0  0  0  0  0  0  0  0  0  0  0  0
   13.7880   -1.4735   14.4830 N   0  0  0  0  0  0  0  0  0  0  0  0
   13.2880   -1.8161   15.8152 C   0  0  0  0  0  0  0  0  0  0  0  0
   12.4464   -0.6543   16.3518 C   0  0  0  0  0  0  0  0  0  0  0  0
   11.2979   -0.2739   15.4456 C   0  0  0  0  0  0  0  0  0  0  0  0
   10.4070   -1.4696   15.2609 C   0  0  0  0  0  0  0  0  0  0  0  0
   11.1661   -2.7178   14.8408 C   0  0  0  0  0  0  0  0  0  0  0  0
   10.3229   -3.7646   14.9052 F   0  0  0  0  0  0  0  0  0  0  0  0
   12.3398   -3.0127   15.7636 C   0  0  0  0  0  0  0  0  0  0  0  0
   14.4906   -2.0835   16.7364 C   0  0  0  0  0  0  0  0  0  0  0  0
   15.7986   -1.3767   16.2859 C   0  0  0  0  0  0  0  0  0  0  0  0
   16.7647   -1.2322   17.4775 C   0  0  0  0  0  0  0  0  0  0  0  0
   17.3375   -2.5760   17.8908 C   0  0  0  0  0  0  0  0  0  0  0  0
   15.5635   -0.0562   15.4828 C   0  0  0  0  0  0  0  0  0  0  0  0
   15.0879    1.1215   16.3643 C   0  0  0  0  0  0  0  0  0  0  0  0
   16.2732    2.0388   16.4918 C   0  0  0  0  0  0  0  0  0  0  0  0
   16.9608    1.8192   15.1722 C   0  0  0  0  0  0  0  0  0  0  0  0
   16.8788    0.3851   14.9993 N   0  0  0  0  0  0  0  0  0  0  0  0
   13.9690   -0.0385   12.3059 H   0  0  0  0  0  0  0  0  0  0  0  0
   15.2731    1.1054   12.9138 H   0  0  0  0  0  0  0  0  0  0  0  0
   13.1583   -1.6187   13.6995 H   0  0  0  0  0  0  0  0  0  0  0  0
   12.9879    0.2511   16.5625 H   0  0  0  0  0  0  0  0  0  0  0  0
   12.0498   -0.9589   17.3068 H   0  0  0  0  0  0  0  0  0  0  0  0
   11.6503    0.0957   14.4769 H   0  0  0  0  0  0  0  0  0  0  0  0
   10.7232    0.5439   15.8957 H   0  0  0  0  0  0  0  0  0  0  0  0
    9.5828   -1.2198   14.5988 H   0  0  0  0  0  0  0  0  0  0  0  0
    9.8970   -1.6653   16.1931 H   0  0  0  0  0  0  0  0  0  0  0  0
   11.4885   -2.6477   13.7997 H   0  0  0  0  0  0  0  0  0  0  0  0
   11.9632   -3.2457   16.7668 H   0  0  0  0  0  0  0  0  0  0  0  0
   12.8490   -3.9227   15.4666 H   0  0  0  0  0  0  0  0  0  0  0  0
   14.2373   -1.8068   17.7679 H   0  0  0  0  0  0  0  0  0  0  0  0
   14.6957   -3.1624   16.7655 H   0  0  0  0  0  0  0  0  0  0  0  0
   16.2801   -2.0742   15.5792 H   0  0  0  0  0  0  0  0  0  0  0  0
   17.6150   -0.5923   17.2209 H   0  0  0  0  0  0  0  0  0  0  0  0
   16.2647   -0.7661   18.3340 H   0  0  0  0  0  0  0  0  0  0  0  0
   17.8584   -3.0601   17.0584 H   0  0  0  0  0  0  0  0  0  0  0  0
   18.0595   -2.4412   18.7030 H   0  0  0  0  0  0  0  0  0  0  0  0
   16.5588   -3.2539   18.2528 H   0  0  0  0  0  0  0  0  0  0  0  0
   14.7594    0.8272   17.3659 H   0  0  0  0  0  0  0  0  0  0  0  0
   14.2859    1.6881   15.8735 H   0  0  0  0  0  0  0  0  0  0  0  0
   15.9795    3.0816   16.6437 H   0  0  0  0  0  0  0  0  0  0  0  0
   16.9156    1.7423   17.3291 H   0  0  0  0  0  0  0  0  0  0  0  0
   16.4512    2.3595   14.3675 H   0  0  0  0  0  0  0  0  0  0  0  0
   18.0008    2.1573   15.1984 H   0  0  0  0  0  0  0  0  0  0  0  0
   17.0438    0.0866   14.0416 H   0  0  0  0  0  0  0  0  0  0  0  0
  1  2  2  0
  2  3  1  0
  3  4  1  0
  4  5  1  0
  5  6  1  0
  6  7  1  0
  7  8  1  0
  8  9  1  0
  8 10  1  0
  4 11  1  0
 11 12  1  0
 12 13  1  0
 13 14  1  0
 12 15  1  0
 15 16  1  0
 16 17  1  0
 17 18  1  0
 18 19  1  0
 15  2  1  0
 10  4  1  0
 19 15  1  0
  1 20  1  0
  1 21  1  0
  3 22  1  0
  5 23  1  0
  5 24  1  0
  6 25  1  0
  6 26  1  0
  7 27  1  0
  7 28  1  0
  8 29  1  0
 10 30  1  0
 10 31  1  0
 11 32  1  0
 11 33  1  0
 12 34  1  0
 13 35  1  0
 13 36  1  0
 14 37  1  0
 14 38  1  0
 14 39  1  0
 16 40  1  0
 16 41  1  0
 17 42  1  0
 17 43  1  0
 18 44  1  0
 18 45  1  0
 19 46  1  0
M  END
>  <Energy>  (125) 
51.442751358408763

>  <compound_id>  (125) 
1465

>  <target_id>  (125) 
1

>  <reference_id>  (125) 
6

>  <inspiration_ids>  (125) 
[6, 8]

>  <energy_score>  (125) 
-59.169567313560435

>  <distance_score>  (125) 
2.477105874196803

>  <path>  (125) 
/opt/xchem-fragalysis-2/maxwin/BulkDock/SCRATCH/505732/C1465-P6/C1465-P6.minimised.mol

>  <scratch_subdir>  (125) 
/opt/xchem-fragalysis-2/maxwin/BulkDock/SCRATCH/505732/C1465-P6

>  <fragmenstein_runtime>  (125) 
1.9121830463409424

>  <fragmenstein_outcome>  (125) 
too moved

>  <fragmenstein_mode>  (125) 
expansion

>  <fragmenstein_error>  (125) 


$$$$
C1465-P8
     RDKit          3D

 46 48  0  0  0  0  0  0  0  0999 V2000
   14.9793   -0.2829   12.8763 C   0  0  0  0  0  0  0  0  0  0  0  0
   14.7445   -0.6354   14.1525 C   0  0  0  0  0  0  0  0  0  0  0  0
   13.7478   -1.5468   14.4355 N   0  0  0  0  0  0  0  0  0  0  0  0
   13.3890   -1.9990   15.7764 C   0  0  0  0  0  0  0  0  0  0  0  0
   12.6735   -0.9121   16.5711 C   0  0  0  0  0  0  0  0  0  0  0  0
   11.5972   -0.2329   15.7510 C   0  0  0  0  0  0  0  0  0  0  0  0
   10.5849   -1.2456   15.2642 C   0  0  0  0  0  0  0  0  0  0  0  0
   11.1740   -2.5797   14.8165 C   0  0  0  0  0  0  0  0  0  0  0  0
   10.1954   -3.5063   14.8821 F   0  0  0  0  0  0  0  0  0  0  0  0
   12.3274   -3.0874   15.6741 C   0  0  0  0  0  0  0  0  0  0  0  0
   14.6635   -2.4096   16.5010 C   0  0  0  0  0  0  0  0  0  0  0  0
   15.8635   -1.4374   16.2469 C   0  0  0  0  0  0  0  0  0  0  0  0
   16.6034   -1.1475   17.5632 C   0  0  0  0  0  0  0  0  0  0  0  0
   17.3762   -2.3695   18.0310 C   0  0  0  0  0  0  0  0  0  0  0  0
   15.5864   -0.1656   15.3533 C   0  0  0  0  0  0  0  0  0  0  0  0
   14.9522    1.0585   16.0522 C   0  0  0  0  0  0  0  0  0  0  0  0
   15.7551    2.2504   15.6178 C   0  0  0  0  0  0  0  0  0  0  0  0
   17.1195    1.6587   15.4557 C   0  0  0  0  0  0  0  0  0  0  0  0
   16.8754    0.3611   14.8657 N   0  0  0  0  0  0  0  0  0  0  0  0
   14.3762   -0.6639   12.0606 H   0  0  0  0  0  0  0  0  0  0  0  0
   15.7741    0.4072   12.6143 H   0  0  0  0  0  0  0  0  0  0  0  0
   13.5621   -2.1791   13.6589 H   0  0  0  0  0  0  0  0  0  0  0  0
   13.3177   -0.1947   17.0599 H   0  0  0  0  0  0  0  0  0  0  0  0
   12.2111   -1.4015   17.4146 H   0  0  0  0  0  0  0  0  0  0  0  0
   12.0253    0.2952   14.8921 H   0  0  0  0  0  0  0  0  0  0  0  0
   11.0847    0.5355   16.3370 H   0  0  0  0  0  0  0  0  0  0  0  0
   10.0048   -0.7800   14.4659 H   0  0  0  0  0  0  0  0  0  0  0  0
    9.8411   -1.4269   16.0379 H   0  0  0  0  0  0  0  0  0  0  0  0
   11.4793   -2.5218   13.7681 H   0  0  0  0  0  0  0  0  0  0  0  0
   11.9593   -3.3980   16.6593 H   0  0  0  0  0  0  0  0  0  0  0  0
   12.7299   -3.9963   15.2579 H   0  0  0  0  0  0  0  0  0  0  0  0
   14.4612   -2.5218   17.5739 H   0  0  0  0  0  0  0  0  0  0  0  0
   14.9699   -3.4077   16.1575 H   0  0  0  0  0  0  0  0  0  0  0  0
   16.5575   -2.0482   15.6433 H   0  0  0  0  0  0  0  0  0  0  0  0
   17.3279   -0.3390   17.4461 H   0  0  0  0  0  0  0  0  0  0  0  0
   15.8997   -0.8330   18.3423 H   0  0  0  0  0  0  0  0  0  0  0  0
   16.7153   -3.2194   18.2257 H   0  0  0  0  0  0  0  0  0  0  0  0
   17.9063   -2.1426   18.9618 H   0  0  0  0  0  0  0  0  0  0  0  0
   18.1216   -2.6752   17.2897 H   0  0  0  0  0  0  0  0  0  0  0  0
   15.0199    0.9862   17.1430 H   0  0  0  0  0  0  0  0  0  0  0  0
   13.9179    1.2583   15.7655 H   0  0  0  0  0  0  0  0  0  0  0  0
   15.7290    3.0640   16.3486 H   0  0  0  0  0  0  0  0  0  0  0  0
   15.3831    2.6390   14.6616 H   0  0  0  0  0  0  0  0  0  0  0  0
   17.7544    2.2737   14.8110 H   0  0  0  0  0  0  0  0  0  0  0  0
   17.6223    1.5682   16.4242 H   0  0  0  0  0  0  0  0  0  0  0  0
   17.6432   -0.2827   15.0323 H   0  0  0  0  0  0  0  0  0  0  0  0
  1  2  2  0
  2  3  1  0
  3  4  1  0
  4  5  1  0
  5  6  1  0
  6  7  1  0
  7  8  1  0
  8  9  1  0
  8 10  1  0
  4 11  1  0
 11 12  1  0
 12 13  1  0
 13 14  1  0
 12 15  1  0
 15 16  1  0
 16 17  1  0
 17 18  1  0
 18 19  1  0
 15  2  1  0
 10  4  1  0
 19 15  1  0
  1 20  1  0
  1 21  1  0
  3 22  1  0
  5 23  1  0
  5 24  1  0
  6 25  1  0
  6 26  1  0
  7 27  1  0
  7 28  1  0
  8 29  1  0
 10 30  1  0
 10 31  1  0
 11 32  1  0
 11 33  1  0
 12 34  1  0
 13 35  1  0
 13 36  1  0
 14 37  1  0
 14 38  1  0
 14 39  1  0
 16 40  1  0
 16 41  1  0
 17 42  1  0
 17 43  1  0
 18 44  1  0
 18 45  1  0
 19 46  1  0
M  END
>  <Energy>  (126) 
58.770287969458877

>  <compound_id>  (126) 
1465

>  <target_id>  (126) 
1

>  <reference_id>  (126) 
8

>  <inspiration_ids>  (126) 
[6, 8]

>  <energy_score>  (126) 
-51.84203070251044

>  <distance_score>  (126) 
2.509087370007835

>  <path>  (126) 
/opt/xchem-fragalysis-2/maxwin/BulkDock/SCRATCH/505732/C1465-P8/C1465-P8.minimised.mol

>  <scratch_subdir>  (126) 
/opt/xchem-fragalysis-2/maxwin/BulkDock/SCRATCH/505732/C1465-P8

>  <fragmenstein_runtime>  (126) 
1.8963284492492676

>  <fragmenstein_outcome>  (126) 
too moved

>  <fragmenstein_mode>  (126) 
expansion

>  <fragmenstein_error>  (126) 


$$$$
C1466-P6
     RDKit          3D

 46 47  0  0  0  0  0  0  0  0999 V2000
   14.4550    2.9019   19.5774 C   0  0  0  0  0  0  0  0  0  0  0  0
   14.4868    3.2362   18.1079 N   0  0  0  0  0  0  0  0  0  0  0  0
   13.9133    4.5195   18.6091 C   0  0  0  0  0  0  0  0  0  0  0  0
   13.8899    2.1799   17.3478 C   0  0  0  0  0  0  0  0  0  0  0  0
   12.7510    2.0166   16.9965 O   0  0  0  0  0  0  0  0  0  0  0  0
   15.0079    1.2002   16.9093 C   0  0  0  0  0  0  0  0  0  0  0  0
   14.6504    0.2576   15.9037 O   0  0  0  0  0  0  0  0  0  0  0  0
   13.8794   -0.8617   16.4006 C   0  0  0  0  0  0  0  0  0  0  0  0
   12.5784   -0.9111   15.5854 C   0  0  0  0  0  0  0  0  0  0  0  0
   12.0041   -2.3098   15.4034 C   0  0  0  0  0  0  0  0  0  0  0  0
   10.6459   -2.2157   15.4754 F   0  0  0  0  0  0  0  0  0  0  0  0
   12.4515   -3.2709   16.4821 C   0  0  0  0  0  0  0  0  0  0  0  0
   13.9556   -3.4001   16.6299 C   0  0  0  0  0  0  0  0  0  0  0  0
   14.7372   -2.1502   16.2060 C   0  0  0  0  0  0  0  0  0  0  0  0
   15.0630   -2.2249   14.8242 O   0  0  0  0  0  0  0  0  0  0  0  0
   16.0004   -2.0052   16.9586 N   0  0  0  0  0  0  0  0  0  0  0  0
   16.7737   -3.1861   17.1075 C   0  0  0  0  0  0  0  0  0  0  0  0
   17.2907   -3.9090   16.0324 C   0  0  0  0  0  0  0  0  0  0  0  0
   18.0077   -5.0867   16.2604 C   0  0  0  0  0  0  0  0  0  0  0  0
   18.2175   -5.5491   17.5622 C   0  0  0  0  0  0  0  0  0  0  0  0
   17.7162   -4.8320   18.6460 C   0  0  0  0  0  0  0  0  0  0  0  0
   17.0057   -3.6651   18.4067 C   0  0  0  0  0  0  0  0  0  0  0  0
   16.5016   -2.9589   19.4652 O   0  0  0  0  0  0  0  0  0  0  0  0
   15.1228    3.5141   20.2022 H   0  0  0  0  0  0  0  0  0  0  0  0
   13.4443    2.7757   19.9938 H   0  0  0  0  0  0  0  0  0  0  0  0
   14.8862    1.8938   19.6617 H   0  0  0  0  0  0  0  0  0  0  0  0
   13.7555    5.0992   17.6877 H   0  0  0  0  0  0  0  0  0  0  0  0
   12.8977    4.4479   19.0230 H   0  0  0  0  0  0  0  0  0  0  0  0
   14.6084    5.1394   19.1932 H   0  0  0  0  0  0  0  0  0  0  0  0
   15.4081    0.6804   17.7864 H   0  0  0  0  0  0  0  0  0  0  0  0
   15.8194    1.8031   16.4857 H   0  0  0  0  0  0  0  0  0  0  0  0
   13.6440   -0.7340   17.4654 H   0  0  0  0  0  0  0  0  0  0  0  0
   11.8323   -0.2711   16.0715 H   0  0  0  0  0  0  0  0  0  0  0  0
   12.7236   -0.4584   14.5957 H   0  0  0  0  0  0  0  0  0  0  0  0
   12.2515   -2.6994   14.4112 H   0  0  0  0  0  0  0  0  0  0  0  0
   11.9863   -4.2530   16.3463 H   0  0  0  0  0  0  0  0  0  0  0  0
   12.0800   -2.9009   17.4348 H   0  0  0  0  0  0  0  0  0  0  0  0
   14.1424   -3.6386   17.6843 H   0  0  0  0  0  0  0  0  0  0  0  0
   14.2938   -4.2614   16.0483 H   0  0  0  0  0  0  0  0  0  0  0  0
   15.2218   -1.3038   14.5431 H   0  0  0  0  0  0  0  0  0  0  0  0
   16.5685   -1.3783   16.3842 H   0  0  0  0  0  0  0  0  0  0  0  0
   17.1301   -3.5834   15.0079 H   0  0  0  0  0  0  0  0  0  0  0  0
   18.3959   -5.6520   15.4165 H   0  0  0  0  0  0  0  0  0  0  0  0
   18.7689   -6.4709   17.7298 H   0  0  0  0  0  0  0  0  0  0  0  0
   17.8721   -5.1803   19.6618 H   0  0  0  0  0  0  0  0  0  0  0  0
   16.0813   -2.1892   19.0309 H   0  0  0  0  0  0  0  0  0  0  0  0
  1  2  1  0
  2  3  1  0
  2  4  1  0
  4  5  2  0
  4  6  1  0
  6  7  1  0
  7  8  1  0
  8  9  1  0
  9 10  1  0
 10 11  1  0
 10 12  1  0
 12 13  1  0
 13 14  1  0
 14 15  1  0
 14 16  1  0
 16 17  1  0
 17 18  2  0
 18 19  1  0
 19 20  2  0
 20 21  1  0
 21 22  2  0
 22 23  1  0
 14  8  1  0
 22 17  1  0
  1 24  1  0
  1 25  1  0
  1 26  1  0
  3 27  1  0
  3 28  1  0
  3 29  1  0
  6 30  1  0
  6 31  1  0
  8 32  1  0
  9 33  1  0
  9 34  1  0
 10 35  1  0
 12 36  1  0
 12 37  1  0
 13 38  1  0
 13 39  1  0
 15 40  1  0
 16 41  1  0
 18 42  1  0
 19 43  1  0
 20 44  1  0
 21 45  1  0
 23 46  1  0
M  END
>  <Energy>  (127) 
120.38579351310653

>  <compound_id>  (127) 
1466

>  <target_id>  (127) 
1

>  <reference_id>  (127) 
6

>  <inspiration_ids>  (127) 
[6, 10]

>  <energy_score>  (127) 
7.6087796161250765

>  <distance_score>  (127) 
2.0873782721745733

>  <path>  (127) 
/opt/xchem-fragalysis-2/maxwin/BulkDock/SCRATCH/505732/C1466-P6/C1466-P6.minimised.mol

>  <scratch_subdir>  (127) 
/opt/xchem-fragalysis-2/maxwin/BulkDock/SCRATCH/505732/C1466-P6

>  <fragmenstein_runtime>  (127) 
5.493271350860596

>  <fragmenstein_outcome>  (127) 
too moved

>  <fragmenstein_mode>  (127) 
expansion

>  <fragmenstein_error>  (127) 


$$$$
C1466-P10
     RDKit          3D

 46 47  0  0  0  0  0  0  0  0999 V2000
   15.8388    1.6481   18.6242 C   0  0  0  0  0  0  0  0  0  0  0  0
   16.0407    1.6399   17.1327 N   0  0  0  0  0  0  0  0  0  0  0  0
   17.3193    2.2836   17.5583 C   0  0  0  0  0  0  0  0  0  0  0  0
   14.8324    2.2191   16.4098 C   0  0  0  0  0  0  0  0  0  0  0  0
   14.5947    3.3281   16.0905 O   0  0  0  0  0  0  0  0  0  0  0  0
   13.8383    1.0641   16.1408 C   0  0  0  0  0  0  0  0  0  0  0  0
   14.4289   -0.2264   16.1377 O   0  0  0  0  0  0  0  0  0  0  0  0
   13.5052   -1.3224   16.2811 C   0  0  0  0  0  0  0  0  0  0  0  0
   12.6234   -1.4660   15.0369 C   0  0  0  0  0  0  0  0  0  0  0  0
   11.8627   -2.7836   15.0028 C   0  0  0  0  0  0  0  0  0  0  0  0
   10.5292   -2.4921   15.0388 F   0  0  0  0  0  0  0  0  0  0  0  0
   12.1271   -3.6622   16.2049 C   0  0  0  0  0  0  0  0  0  0  0  0
   13.5565   -3.8632   16.6511 C   0  0  0  0  0  0  0  0  0  0  0  0
   14.3887   -2.5940   16.5005 C   0  0  0  0  0  0  0  0  0  0  0  0
   15.1922   -2.7097   15.3316 O   0  0  0  0  0  0  0  0  0  0  0  0
   15.2377   -2.3616   17.6898 N   0  0  0  0  0  0  0  0  0  0  0  0
   16.3793   -3.2001   17.7798 C   0  0  0  0  0  0  0  0  0  0  0  0
   17.5213   -2.9537   17.0095 C   0  0  0  0  0  0  0  0  0  0  0  0
   18.6044   -3.8276   17.0516 C   0  0  0  0  0  0  0  0  0  0  0  0
   18.5596   -4.9614   17.8668 C   0  0  0  0  0  0  0  0  0  0  0  0
   17.4362   -5.2145   18.6522 C   0  0  0  0  0  0  0  0  0  0  0  0
   16.3650   -4.3320   18.6067 C   0  0  0  0  0  0  0  0  0  0  0  0
   15.2942   -4.5606   19.4259 O   0  0  0  0  0  0  0  0  0  0  0  0
   15.6644    2.6459   19.0577 H   0  0  0  0  0  0  0  0  0  0  0  0
   14.8686    1.1503   18.7737 H   0  0  0  0  0  0  0  0  0  0  0  0
   16.5299    1.0124   19.1988 H   0  0  0  0  0  0  0  0  0  0  0  0
   17.2193    3.2948   17.9828 H   0  0  0  0  0  0  0  0  0  0  0  0
   18.0281    1.6228   18.0796 H   0  0  0  0  0  0  0  0  0  0  0  0
   17.8194    2.4849   16.5989 H   0  0  0  0  0  0  0  0  0  0  0  0
   13.3896    1.2462   15.1585 H   0  0  0  0  0  0  0  0  0  0  0  0
   13.0650    1.1324   16.9113 H   0  0  0  0  0  0  0  0  0  0  0  0
   12.8967   -1.1402   17.1673 H   0  0  0  0  0  0  0  0  0  0  0  0
   11.9204   -0.6266   14.9787 H   0  0  0  0  0  0  0  0  0  0  0  0
   13.2453   -1.3819   14.1364 H   0  0  0  0  0  0  0  0  0  0  0  0
   12.0358   -3.3002   14.0583 H   0  0  0  0  0  0  0  0  0  0  0  0
   11.6009   -4.6112   16.1378 H   0  0  0  0  0  0  0  0  0  0  0  0
   11.6594   -3.1460   17.0256 H   0  0  0  0  0  0  0  0  0  0  0  0
   13.4951   -4.1795   17.6971 H   0  0  0  0  0  0  0  0  0  0  0  0
   14.0212   -4.6967   16.1220 H   0  0  0  0  0  0  0  0  0  0  0  0
   15.5798   -1.8251   15.2063 H   0  0  0  0  0  0  0  0  0  0  0  0
   15.5931   -1.4064   17.5724 H   0  0  0  0  0  0  0  0  0  0  0  0
   17.5766   -2.0857   16.3597 H   0  0  0  0  0  0  0  0  0  0  0  0
   19.4824   -3.6344   16.4412 H   0  0  0  0  0  0  0  0  0  0  0  0
   19.4030   -5.6469   17.8923 H   0  0  0  0  0  0  0  0  0  0  0  0
   17.3978   -6.0858   19.2983 H   0  0  0  0  0  0  0  0  0  0  0  0
   14.7641   -3.7425   19.3434 H   0  0  0  0  0  0  0  0  0  0  0  0
  1  2  1  0
  2  3  1  0
  2  4  1  0
  4  5  2  0
  4  6  1  0
  6  7  1  0
  7  8  1  0
  8  9  1  0
  9 10  1  0
 10 11  1  0
 10 12  1  0
 12 13  1  0
 13 14  1  0
 14 15  1  0
 14 16  1  0
 16 17  1  0
 17 18  2  0
 18 19  1  0
 19 20  2  0
 20 21  1  0
 21 22  2  0
 22 23  1  0
 14  8  1  0
 22 17  1  0
  1 24  1  0
  1 25  1  0
  1 26  1  0
  3 27  1  0
  3 28  1  0
  3 29  1  0
  6 30  1  0
  6 31  1  0
  8 32  1  0
  9 33  1  0
  9 34  1  0
 10 35  1  0
 12 36  1  0
 12 37  1  0
 13 38  1  0
 13 39  1  0
 15 40  1  0
 16 41  1  0
 18 42  1  0
 19 43  1  0
 20 44  1  0
 21 45  1  0
 23 46  1  0
M  END
>  <Energy>  (128) 
136.45827364957321

>  <compound_id>  (128) 
1466

>  <target_id>  (128) 
1

>  <reference_id>  (128) 
10

>  <inspiration_ids>  (128) 
[6, 10]

>  <energy_score>  (128) 
33.792077881699356

>  <distance_score>  (128) 
1.8198093146366567

>  <path>  (128) 
/opt/xchem-fragalysis-2/maxwin/BulkDock/SCRATCH/505732/C1466-P10/C1466-P10.minimised.mol

>  <scratch_subdir>  (128) 
/opt/xchem-fragalysis-2/maxwin/BulkDock/SCRATCH/505732/C1466-P10

>  <fragmenstein_runtime>  (128) 
3.3792755603790283

>  <fragmenstein_outcome>  (128) 
too moved

>  <fragmenstein_mode>  (128) 
expansion

>  <fragmenstein_error>  (128) 


$$$$
C1469-P6
     RDKit          3D

 36 36  0  0  0  0  0  0  0  0999 V2000
   17.4228   -4.1611   15.6628 C   0  0  0  0  0  0  0  0  0  0  0  0
   16.9017   -2.7656   15.6917 N   0  0  0  0  0  0  0  0  0  0  0  0
   17.7661   -2.6499   14.4645 C   0  0  0  0  0  0  0  0  0  0  0  0
   17.1725   -1.6878   16.5881 C   0  0  0  0  0  0  0  0  0  0  0  0
   17.9592   -1.6041   17.4970 O   0  0  0  0  0  0  0  0  0  0  0  0
   16.2004   -0.5161   16.3005 C   0  0  0  0  0  0  0  0  0  0  0  0
   14.9888   -0.5117   17.1757 N   0  0  0  0  0  0  0  0  0  0  0  0
   15.2468   -0.7716   18.5974 C   0  0  0  0  0  0  0  0  0  0  0  0
   13.8873   -1.1482   16.5904 C   0  0  0  0  0  0  0  0  0  0  0  0
   13.6105   -2.5006   16.8461 C   0  0  0  0  0  0  0  0  0  0  0  0
   12.5402   -3.1484   16.2329 C   0  0  0  0  0  0  0  0  0  0  0  0
   12.2990   -4.4312   16.5261 F   0  0  0  0  0  0  0  0  0  0  0  0
   11.7192   -2.4909   15.3337 C   0  0  0  0  0  0  0  0  0  0  0  0
   11.9596   -1.1495   15.0656 C   0  0  0  0  0  0  0  0  0  0  0  0
   13.0281   -0.4792   15.6951 C   0  0  0  0  0  0  0  0  0  0  0  0
   13.1631    1.2697   15.3695 S   0  0  0  0  0  0  0  0  0  0  0  0
   13.5983    2.0790   16.8804 C   0  0  0  0  0  0  0  0  0  0  0  0
   11.8189    1.7270   15.0508 O   0  0  0  0  0  0  0  0  0  0  0  0
   14.2400    1.4571   14.4155 O   0  0  0  0  0  0  0  0  0  0  0  0
   18.5000   -4.2616   15.8648 H   0  0  0  0  0  0  0  0  0  0  0  0
   16.9707   -4.6141   16.5570 H   0  0  0  0  0  0  0  0  0  0  0  0
   17.0490   -4.7811   14.8386 H   0  0  0  0  0  0  0  0  0  0  0  0
   17.6174   -1.6243   14.0950 H   0  0  0  0  0  0  0  0  0  0  0  0
   18.8481   -2.6840   14.6691 H   0  0  0  0  0  0  0  0  0  0  0  0
   17.4524   -3.2704   13.6135 H   0  0  0  0  0  0  0  0  0  0  0  0
   16.7570    0.4123   16.4797 H   0  0  0  0  0  0  0  0  0  0  0  0
   15.9285   -0.5026   15.2387 H   0  0  0  0  0  0  0  0  0  0  0  0
   16.0280   -0.0953   18.9615 H   0  0  0  0  0  0  0  0  0  0  0  0
   14.3492   -0.5655   19.1901 H   0  0  0  0  0  0  0  0  0  0  0  0
   15.5651   -1.8005   18.7928 H   0  0  0  0  0  0  0  0  0  0  0  0
   14.2346   -3.0879   17.5118 H   0  0  0  0  0  0  0  0  0  0  0  0
   10.9036   -3.0176   14.8464 H   0  0  0  0  0  0  0  0  0  0  0  0
   11.3081   -0.6312   14.3608 H   0  0  0  0  0  0  0  0  0  0  0  0
   13.0083    1.6728   17.7003 H   0  0  0  0  0  0  0  0  0  0  0  0
   14.6666    1.9819   17.0697 H   0  0  0  0  0  0  0  0  0  0  0  0
   13.3661    3.1412   16.7649 H   0  0  0  0  0  0  0  0  0  0  0  0
  1  2  1  0
  2  3  1  0
  2  4  1  0
  4  5  2  0
  4  6  1  0
  6  7  1  0
  7  8  1  0
  7  9  1  0
  9 10  2  0
 10 11  1  0
 11 12  1  0
 11 13  2  0
 13 14  1  0
 14 15  2  0
 15 16  1  0
 16 17  1  0
 16 18  2  0
 16 19  2  0
 15  9  1  0
  1 20  1  0
  1 21  1  0
  1 22  1  0
  3 23  1  0
  3 24  1  0
  3 25  1  0
  6 26  1  0
  6 27  1  0
  8 28  1  0
  8 29  1  0
  8 30  1  0
 10 31  1  0
 13 32  1  0
 14 33  1  0
 17 34  1  0
 17 35  1  0
 17 36  1  0
M  END
>  <Energy>  (129) 
156.70900201197404

>  <compound_id>  (129) 
1469

>  <target_id>  (129) 
1

>  <reference_id>  (129) 
6

>  <inspiration_ids>  (129) 
[6, 23]

>  <energy_score>  (129) 
19.332822162382257

>  <distance_score>  (129) 
2.0599132390066237

>  <path>  (129) 
/opt/xchem-fragalysis-2/maxwin/BulkDock/SCRATCH/505732/C1469-P6/C1469-P6.minimised.mol

>  <scratch_subdir>  (129) 
/opt/xchem-fragalysis-2/maxwin/BulkDock/SCRATCH/505732/C1469-P6

>  <fragmenstein_runtime>  (129) 
14.522201538085938

>  <fragmenstein_outcome>  (129) 
too moved

>  <fragmenstein_mode>  (129) 
expansion

>  <fragmenstein_error>  (129) 


$$$$
C1469-P23
     RDKit          3D

 36 36  0  0  0  0  0  0  0  0999 V2000
   20.8415    0.9503   16.1271 C   0  0  0  0  0  0  0  0  0  0  0  0
   19.5715    0.2089   15.8687 N   0  0  0  0  0  0  0  0  0  0  0  0
   19.1756    1.5765   15.3710 C   0  0  0  0  0  0  0  0  0  0  0  0
   18.5337   -0.3479   16.8359 C   0  0  0  0  0  0  0  0  0  0  0  0
   18.4549   -0.2514   18.0079 O   0  0  0  0  0  0  0  0  0  0  0  0
   17.5258   -1.1598   15.9774 C   0  0  0  0  0  0  0  0  0  0  0  0
   16.1220   -0.9013   16.4098 N   0  0  0  0  0  0  0  0  0  0  0  0
   15.7021   -1.7073   17.5704 C   0  0  0  0  0  0  0  0  0  0  0  0
   15.1711   -0.9527   15.3795 C   0  0  0  0  0  0  0  0  0  0  0  0
   15.1318   -1.9858   14.4475 C   0  0  0  0  0  0  0  0  0  0  0  0
   14.0784   -2.0735   13.5404 C   0  0  0  0  0  0  0  0  0  0  0  0
   14.1667   -2.9029   12.4955 F   0  0  0  0  0  0  0  0  0  0  0  0
   12.9550   -1.3019   13.6686 C   0  0  0  0  0  0  0  0  0  0  0  0
   13.0732   -0.1627   14.4186 C   0  0  0  0  0  0  0  0  0  0  0  0
   14.2104    0.0490   15.2067 C   0  0  0  0  0  0  0  0  0  0  0  0
   14.5325    1.7222   15.7014 S   0  0  0  0  0  0  0  0  0  0  0  0
   15.0181    1.6751   17.3985 C   0  0  0  0  0  0  0  0  0  0  0  0
   13.2872    2.4526   15.6199 O   0  0  0  0  0  0  0  0  0  0  0  0
   15.6475    2.2114   14.9191 O   0  0  0  0  0  0  0  0  0  0  0  0
   20.7890    1.7189   16.9140 H   0  0  0  0  0  0  0  0  0  0  0  0
   21.4781    0.1845   16.5952 H   0  0  0  0  0  0  0  0  0  0  0  0
   21.4075    1.2363   15.2281 H   0  0  0  0  0  0  0  0  0  0  0  0
   19.0290    2.3237   16.1671 H   0  0  0  0  0  0  0  0  0  0  0  0
   18.1595    1.4393   14.9775 H   0  0  0  0  0  0  0  0  0  0  0  0
   19.7282    1.9441   14.4924 H   0  0  0  0  0  0  0  0  0  0  0  0
   17.6565   -0.8831   14.9239 H   0  0  0  0  0  0  0  0  0  0  0  0
   17.7805   -2.2223   16.0756 H   0  0  0  0  0  0  0  0  0  0  0  0
   16.3366   -1.5009   18.4368 H   0  0  0  0  0  0  0  0  0  0  0  0
   14.6729   -1.4746   17.8662 H   0  0  0  0  0  0  0  0  0  0  0  0
   15.7613   -2.7798   17.3507 H   0  0  0  0  0  0  0  0  0  0  0  0
   15.9207   -2.7292   14.3842 H   0  0  0  0  0  0  0  0  0  0  0  0
   12.0777   -1.4870   13.0742 H   0  0  0  0  0  0  0  0  0  0  0  0
   12.3391    0.6198   14.2588 H   0  0  0  0  0  0  0  0  0  0  0  0
   14.7814    2.6446   17.8440 H   0  0  0  0  0  0  0  0  0  0  0  0
   14.5070    0.8886   17.9464 H   0  0  0  0  0  0  0  0  0  0  0  0
   16.0977    1.5247   17.4559 H   0  0  0  0  0  0  0  0  0  0  0  0
  1  2  1  0
  2  3  1  0
  2  4  1  0
  4  5  2  0
  4  6  1  0
  6  7  1  0
  7  8  1  0
  7  9  1  0
  9 10  2  0
 10 11  1  0
 11 12  1  0
 11 13  2  0
 13 14  1  0
 14 15  2  0
 15 16  1  0
 16 17  1  0
 16 18  2  0
 16 19  2  0
 15  9  1  0
  1 20  1  0
  1 21  1  0
  1 22  1  0
  3 23  1  0
  3 24  1  0
  3 25  1  0
  6 26  1  0
  6 27  1  0
  8 28  1  0
  8 29  1  0
  8 30  1  0
 10 31  1  0
 13 32  1  0
 14 33  1  0
 17 34  1  0
 17 35  1  0
 17 36  1  0
M  END
>  <Energy>  (130) 
180.46466223391795

>  <compound_id>  (130) 
1469

>  <target_id>  (130) 
1

>  <reference_id>  (130) 
23

>  <inspiration_ids>  (130) 
[6, 23]

>  <energy_score>  (130) 
49.718776873798674

>  <distance_score>  (130) 
3.22190378997893

>  <path>  (130) 
/opt/xchem-fragalysis-2/maxwin/BulkDock/SCRATCH/505732/C1469-P23/C1469-P23.minimised.mol

>  <scratch_subdir>  (130) 
/opt/xchem-fragalysis-2/maxwin/BulkDock/SCRATCH/505732/C1469-P23

>  <fragmenstein_runtime>  (130) 
14.105742454528809

>  <fragmenstein_outcome>  (130) 
too moved

>  <fragmenstein_mode>  (130) 
expansion

>  <fragmenstein_error>  (130) 


$$$$
C1470-P6
     RDKit          3D

 43 46  0  0  0  0  0  0  0  0999 V2000
   13.8498    4.1575   15.9744 C   0  0  0  0  0  0  0  0  0  0  0  0
   15.5948    3.2165   15.3422 N   0  0  0  0  0  0  0  0  0  0  0  0
   17.0186    3.7453   14.9457 C   0  0  0  0  0  0  0  0  0  0  0  0
   15.8406    1.6948   14.6325 C   0  0  0  0  0  0  0  0  0  0  0  0
   14.5918    0.7870   14.5815 C   0  0  0  0  0  0  0  0  0  0  0  0
   13.5787    1.3626   14.0005 N   0  0  0  0  0  0  0  0  0  0  0  0
   13.6926    2.5421   14.7449 C   0  0  0  0  0  0  0  0  0  0  0  0
   14.2460    4.0624   13.9283 C   0  0  0  0  0  0  0  0  0  0  0  0
   15.1814    5.3009   14.8848 C   0  0  0  0  0  0  0  0  0  0  0  0
   15.6617    4.9645   16.6149 C   0  0  0  0  0  0  0  0  0  0  0  0
   15.2110    3.3940   17.3997 C   0  0  0  0  0  0  0  0  0  0  0  0
   15.6698    3.1069   18.6265 F   0  0  0  0  0  0  0  0  0  0  0  0
   14.2097    2.1909   16.5084 C   0  0  0  0  0  0  0  0  0  0  0  0
   14.0852    0.8332   16.9876 N   0  0  0  0  0  0  0  0  0  0  0  0
   14.3631   -0.0854   15.8466 C   0  0  0  0  0  0  0  0  0  0  0  0
   15.5652   -1.0095   16.1496 C   0  0  0  0  0  0  0  0  0  0  0  0
   15.0145   -2.2562   16.8524 C   0  0  0  0  0  0  0  0  0  0  0  0
   13.6380   -2.3244   16.2859 C   0  0  0  0  0  0  0  0  0  0  0  0
   12.7860   -3.4088   16.2868 C   0  0  0  0  0  0  0  0  0  0  0  0
   11.5358   -3.2525   15.7006 C   0  0  0  0  0  0  0  0  0  0  0  0
   11.1179   -2.0174   15.2020 C   0  0  0  0  0  0  0  0  0  0  0  0
   11.9718   -0.9231   15.2295 C   0  0  0  0  0  0  0  0  0  0  0  0
   13.2487   -1.0931   15.7429 C   0  0  0  0  0  0  0  0  0  0  0  0
   12.8959    3.5737   16.2159 H   0  0  0  0  0  0  0  0  0  0  0  0
   13.7846    4.7248   16.9593 H   0  0  0  0  0  0  0  0  0  0  0  0
   13.2919    4.9413   15.3626 H   0  0  0  0  0  0  0  0  0  0  0  0
   17.0802    3.8863   13.8576 H   0  0  0  0  0  0  0  0  0  0  0  0
   17.7599    2.9804   15.2159 H   0  0  0  0  0  0  0  0  0  0  0  0
   17.4421    4.6375   15.4221 H   0  0  0  0  0  0  0  0  0  0  0  0
   16.1560    1.8692   13.5943 H   0  0  0  0  0  0  0  0  0  0  0  0
   16.6472    1.2031   15.1849 H   0  0  0  0  0  0  0  0  0  0  0  0
   14.1041    4.1832   12.8600 H   0  0  0  0  0  0  0  0  0  0  0  0
   15.5200    6.2120   14.3983 H   0  0  0  0  0  0  0  0  0  0  0  0
   16.2620    5.6810   17.1677 H   0  0  0  0  0  0  0  0  0  0  0  0
   14.6682    0.7116   17.8108 H   0  0  0  0  0  0  0  0  0  0  0  0
   16.0425   -1.3191   15.2085 H   0  0  0  0  0  0  0  0  0  0  0  0
   16.3420   -0.5296   16.7557 H   0  0  0  0  0  0  0  0  0  0  0  0
   15.6108   -3.1422   16.6165 H   0  0  0  0  0  0  0  0  0  0  0  0
   14.9700   -2.1138   17.9372 H   0  0  0  0  0  0  0  0  0  0  0  0
   13.0791   -4.3691   16.6954 H   0  0  0  0  0  0  0  0  0  0  0  0
   10.8727   -4.1046   15.6251 H   0  0  0  0  0  0  0  0  0  0  0  0
   10.1256   -1.9167   14.7724 H   0  0  0  0  0  0  0  0  0  0  0  0
   11.6367    0.0283   14.8281 H   0  0  0  0  0  0  0  0  0  0  0  0
  1  2  1  0
  2  3  1  0
  2  4  1  0
  4  5  1  0
  5  6  2  0
  6  7  1  0
  7  8  2  0
  8  9  1  0
  9 10  2  0
 10 11  1  0
 11 12  1  0
 11 13  2  0
 13 14  1  0
 14 15  1  0
 15 16  1  0
 16 17  1  0
 17 18  1  0
 18 19  2  0
 19 20  1  0
 20 21  2  0
 21 22  1  0
 22 23  2  0
 15  5  1  0
 23 18  1  0
 13  7  1  0
 23 15  1  0
  1 24  1  0
  1 25  1  0
  1 26  1  0
  3 27  1  0
  3 28  1  0
  3 29  1  0
  4 30  1  0
  4 31  1  0
  8 32  1  0
  9 33  1  0
 10 34  1  0
 14 35  1  0
 16 36  1  0
 16 37  1  0
 17 38  1  0
 17 39  1  0
 19 40  1  0
 20 41  1  0
 21 42  1  0
 22 43  1  0
M  END
>  <Energy>  (131) 
1210.8268126236676

>  <compound_id>  (131) 
1470

>  <target_id>  (131) 
1

>  <reference_id>  (131) 
6

>  <inspiration_ids>  (131) 
[6, 26]

>  <energy_score>  (131) 
1001.3858005260321

>  <distance_score>  (131) 
2.037078512934595

>  <path>  (131) 
/opt/xchem-fragalysis-2/maxwin/BulkDock/SCRATCH/505732/C1470-P6/C1470-P6.minimised.mol

>  <scratch_subdir>  (131) 
/opt/xchem-fragalysis-2/maxwin/BulkDock/SCRATCH/505732/C1470-P6

>  <fragmenstein_runtime>  (131) 
2.539752960205078

>  <fragmenstein_outcome>  (131) 
too moved

>  <fragmenstein_mode>  (131) 
expansion

>  <fragmenstein_error>  (131) 


$$$$
C1470-P26
     RDKit          3D

 43 46  0  0  0  0  0  0  0  0999 V2000
   13.4214    4.0886   15.4175 C   0  0  0  0  0  0  0  0  0  0  0  0
   15.2795    3.2710   14.9589 N   0  0  0  0  0  0  0  0  0  0  0  0
   16.6694    3.9011   14.5880 C   0  0  0  0  0  0  0  0  0  0  0  0
   15.7029    1.7306   14.3900 C   0  0  0  0  0  0  0  0  0  0  0  0
   14.5594    0.6918   14.4026 C   0  0  0  0  0  0  0  0  0  0  0  0
   13.5151    1.0952   13.7376 N   0  0  0  0  0  0  0  0  0  0  0  0
   13.4808    2.3509   14.3570 C   0  0  0  0  0  0  0  0  0  0  0  0
   13.9279    3.8312   13.4111 C   0  0  0  0  0  0  0  0  0  0  0  0
   14.6912    5.2461   14.2717 C   0  0  0  0  0  0  0  0  0  0  0  0
   15.1102    5.1338   16.0465 C   0  0  0  0  0  0  0  0  0  0  0  0
   14.7749    3.6099   16.9691 C   0  0  0  0  0  0  0  0  0  0  0  0
   15.2006    3.4909   18.2350 F   0  0  0  0  0  0  0  0  0  0  0  0
   13.9419    2.2299   16.1651 C   0  0  0  0  0  0  0  0  0  0  0  0
   13.9313    0.9202   16.7691 N   0  0  0  0  0  0  0  0  0  0  0  0
   14.3766   -0.0678   15.7432 C   0  0  0  0  0  0  0  0  0  0  0  0
   15.6654   -0.7863   16.2043 C   0  0  0  0  0  0  0  0  0  0  0  0
   15.2279   -1.9523   17.0973 C   0  0  0  0  0  0  0  0  0  0  0  0
   13.8977   -2.2784   16.5090 C   0  0  0  0  0  0  0  0  0  0  0  0
   13.1634   -3.4271   16.7081 C   0  0  0  0  0  0  0  0  0  0  0  0
   11.9300   -3.5266   16.0776 C   0  0  0  0  0  0  0  0  0  0  0  0
   11.4317   -2.4887   15.2840 C   0  0  0  0  0  0  0  0  0  0  0  0
   12.1632   -1.3165   15.1214 C   0  0  0  0  0  0  0  0  0  0  0  0
   13.4073   -1.2216   15.7285 C   0  0  0  0  0  0  0  0  0  0  0  0
   12.5171    3.4382   15.6789 H   0  0  0  0  0  0  0  0  0  0  0  0
   13.2508    4.7392   16.3362 H   0  0  0  0  0  0  0  0  0  0  0  0
   12.8233    4.7494   14.7065 H   0  0  0  0  0  0  0  0  0  0  0  0
   16.7852    3.9423   13.4960 H   0  0  0  0  0  0  0  0  0  0  0  0
   17.4607    3.2441   14.9749 H   0  0  0  0  0  0  0  0  0  0  0  0
   16.9769    4.8739   14.9895 H   0  0  0  0  0  0  0  0  0  0  0  0
   16.0259    1.8485   13.3460 H   0  0  0  0  0  0  0  0  0  0  0  0
   16.5427    1.3757   14.9944 H   0  0  0  0  0  0  0  0  0  0  0  0
   13.8276    3.8316   12.3313 H   0  0  0  0  0  0  0  0  0  0  0  0
   14.9646    6.1341   13.7078 H   0  0  0  0  0  0  0  0  0  0  0  0
   15.6089    5.9584   16.5470 H   0  0  0  0  0  0  0  0  0  0  0  0
   14.4630    0.9405   17.6342 H   0  0  0  0  0  0  0  0  0  0  0  0
   16.2016   -1.1864   15.3316 H   0  0  0  0  0  0  0  0  0  0  0  0
   16.3646   -0.1308   16.7358 H   0  0  0  0  0  0  0  0  0  0  0  0
   15.9315   -2.7872   17.0349 H   0  0  0  0  0  0  0  0  0  0  0  0
   15.1142   -1.6356   18.1392 H   0  0  0  0  0  0  0  0  0  0  0  0
   13.5279   -4.2353   17.3294 H   0  0  0  0  0  0  0  0  0  0  0  0
   11.3535   -4.4342   16.2044 H   0  0  0  0  0  0  0  0  0  0  0  0
   10.4682   -2.5953   14.7909 H   0  0  0  0  0  0  0  0  0  0  0  0
   11.7520   -0.5086   14.5226 H   0  0  0  0  0  0  0  0  0  0  0  0
  1  2  1  0
  2  3  1  0
  2  4  1  0
  4  5  1  0
  5  6  2  0
  6  7  1  0
  7  8  2  0
  8  9  1  0
  9 10  2  0
 10 11  1  0
 11 12  1  0
 11 13  2  0
 13 14  1  0
 14 15  1  0
 15 16  1  0
 16 17  1  0
 17 18  1  0
 18 19  2  0
 19 20  1  0
 20 21  2  0
 21 22  1  0
 22 23  2  0
 15  5  1  0
 23 18  1  0
 13  7  1  0
 23 15  1  0
  1 24  1  0
  1 25  1  0
  1 26  1  0
  3 27  1  0
  3 28  1  0
  3 29  1  0
  4 30  1  0
  4 31  1  0
  8 32  1  0
  9 33  1  0
 10 34  1  0
 14 35  1  0
 16 36  1  0
 16 37  1  0
 17 38  1  0
 17 39  1  0
 19 40  1  0
 20 41  1  0
 21 42  1  0
 22 43  1  0
M  END
>  <Energy>  (132) 
1210.6176344344244

>  <compound_id>  (132) 
1470

>  <target_id>  (132) 
1

>  <reference_id>  (132) 
26

>  <inspiration_ids>  (132) 
[6, 26]

>  <energy_score>  (132) 
1001.1766223367797

>  <distance_score>  (132) 
2.1241612437025603

>  <path>  (132) 
/opt/xchem-fragalysis-2/maxwin/BulkDock/SCRATCH/505732/C1470-P26/C1470-P26.minimised.mol

>  <scratch_subdir>  (132) 
/opt/xchem-fragalysis-2/maxwin/BulkDock/SCRATCH/505732/C1470-P26

>  <fragmenstein_runtime>  (132) 
2.5260801315307617

>  <fragmenstein_outcome>  (132) 
too moved

>  <fragmenstein_mode>  (132) 
expansion

>  <fragmenstein_error>  (132) 


$$$$
C1472-P6
     RDKit          3D

 40 41  0  0  0  0  0  0  0  0999 V2000
   14.5071    2.6132   12.7070 C   0  0  0  0  0  0  0  0  0  0  0  0
   13.5063    1.7288   11.9996 N   0  0  0  0  0  0  0  0  0  0  0  0
   14.1230    2.4069   10.8216 C   0  0  0  0  0  0  0  0  0  0  0  0
   12.1205    1.8691   12.6089 C   0  0  0  0  0  0  0  0  0  0  0  0
   11.2398    2.6050   12.3393 O   0  0  0  0  0  0  0  0  0  0  0  0
   11.9435    0.7525   13.6631 C   0  0  0  0  0  0  0  0  0  0  0  0
   13.1300    0.3443   14.3342 O   0  0  0  0  0  0  0  0  0  0  0  0
   13.1503   -0.9322   14.8075 C   0  0  0  0  0  0  0  0  0  0  0  0
   12.0022   -1.5794   15.2497 C   0  0  0  0  0  0  0  0  0  0  0  0
   12.1137   -2.8435   15.7883 C   0  0  0  0  0  0  0  0  0  0  0  0
   10.9996   -3.5414   15.9940 F   0  0  0  0  0  0  0  0  0  0  0  0
   13.3502   -3.4132   16.0478 C   0  0  0  0  0  0  0  0  0  0  0  0
   14.5058   -2.7902   15.5582 C   0  0  0  0  0  0  0  0  0  0  0  0
   14.3911   -1.5881   14.8478 C   0  0  0  0  0  0  0  0  0  0  0  0
   15.5287   -1.0215   14.0510 C   0  0  0  0  0  0  0  0  0  0  0  0
   15.9190    0.1179   14.3040 O   0  0  0  0  0  0  0  0  0  0  0  0
   16.1515   -1.8493   12.9212 C   0  0  0  0  0  0  0  0  0  0  0  0
   16.0505   -1.0673   11.5938 C   0  0  0  0  0  0  0  0  0  0  0  0
   16.7908   -1.6596   10.5115 O   0  0  0  0  0  0  0  0  0  0  0  0
   18.0435   -2.2168   10.9332 C   0  0  0  0  0  0  0  0  0  0  0  0
   18.4714   -1.7455   12.3200 C   0  0  0  0  0  0  0  0  0  0  0  0
   17.5090   -2.1464   13.3015 O   0  0  0  0  0  0  0  0  0  0  0  0
   14.3750    2.4064   13.7779 H   0  0  0  0  0  0  0  0  0  0  0  0
   14.2846    3.6915   12.6552 H   0  0  0  0  0  0  0  0  0  0  0  0
   15.5622    2.3567   12.5271 H   0  0  0  0  0  0  0  0  0  0  0  0
   13.8929    3.4791   10.7222 H   0  0  0  0  0  0  0  0  0  0  0  0
   15.1658    2.1284   10.6088 H   0  0  0  0  0  0  0  0  0  0  0  0
   13.5689    1.9749    9.9754 H   0  0  0  0  0  0  0  0  0  0  0  0
   11.2406    1.1331   14.4140 H   0  0  0  0  0  0  0  0  0  0  0  0
   11.4820   -0.0802   13.1211 H   0  0  0  0  0  0  0  0  0  0  0  0
   11.0106   -1.1542   15.1433 H   0  0  0  0  0  0  0  0  0  0  0  0
   13.3951   -4.3925   16.5123 H   0  0  0  0  0  0  0  0  0  0  0  0
   15.4708   -3.2848   15.6479 H   0  0  0  0  0  0  0  0  0  0  0  0
   15.6234   -2.7970   12.8208 H   0  0  0  0  0  0  0  0  0  0  0  0
   16.4199   -0.0413   11.7098 H   0  0  0  0  0  0  0  0  0  0  0  0
   15.0041   -0.9878   11.2791 H   0  0  0  0  0  0  0  0  0  0  0  0
   18.7961   -1.9551   10.1836 H   0  0  0  0  0  0  0  0  0  0  0  0
   17.9221   -3.3054   10.9275 H   0  0  0  0  0  0  0  0  0  0  0  0
   19.4318   -2.1921   12.5943 H   0  0  0  0  0  0  0  0  0  0  0  0
   18.5821   -0.6562   12.3620 H   0  0  0  0  0  0  0  0  0  0  0  0
  1  2  1  0
  2  3  1  0
  2  4  1  0
  4  5  2  0
  4  6  1  0
  6  7  1  0
  7  8  1  0
  8  9  2  0
  9 10  1  0
 10 11  1  0
 10 12  2  0
 12 13  1  0
 13 14  2  0
 14 15  1  0
 15 16  2  0
 15 17  1  0
 17 18  1  0
 18 19  1  0
 19 20  1  0
 20 21  1  0
 21 22  1  0
 14  8  1  0
 22 17  1  0
  1 23  1  0
  1 24  1  0
  1 25  1  0
  3 26  1  0
  3 27  1  0
  3 28  1  0
  6 29  1  0
  6 30  1  0
  9 31  1  0
 12 32  1  0
 13 33  1  0
 17 34  1  0
 18 35  1  0
 18 36  1  0
 20 37  1  0
 20 38  1  0
 21 39  1  0
 21 40  1  0
M  END
>  <Energy>  (133) 
222.31620084323259

>  <compound_id>  (133) 
1472

>  <target_id>  (133) 
1

>  <reference_id>  (133) 
6

>  <inspiration_ids>  (133) 
[6, 29]

>  <energy_score>  (133) 
38.59881839910474

>  <distance_score>  (133) 
2.17061046849791

>  <path>  (133) 
/opt/xchem-fragalysis-2/maxwin/BulkDock/SCRATCH/505732/C1472-P6/C1472-P6.minimised.mol

>  <scratch_subdir>  (133) 
/opt/xchem-fragalysis-2/maxwin/BulkDock/SCRATCH/505732/C1472-P6

>  <fragmenstein_runtime>  (133) 
4.72494101524353

>  <fragmenstein_outcome>  (133) 
too moved

>  <fragmenstein_mode>  (133) 
expansion

>  <fragmenstein_error>  (133) 


$$$$
C1472-P29
     RDKit          3D

 40 41  0  0  0  0  0  0  0  0999 V2000
   12.5413    4.1284   14.4232 C   0  0  0  0  0  0  0  0  0  0  0  0
   13.0720    3.5098   13.1576 N   0  0  0  0  0  0  0  0  0  0  0  0
   12.6213    4.8291   12.6251 C   0  0  0  0  0  0  0  0  0  0  0  0
   12.5045    2.1067   12.9477 C   0  0  0  0  0  0  0  0  0  0  0  0
   11.5324    1.7543   12.3810 O   0  0  0  0  0  0  0  0  0  0  0  0
   13.5271    1.1437   13.5916 C   0  0  0  0  0  0  0  0  0  0  0  0
   13.2890   -0.1967   13.1585 O   0  0  0  0  0  0  0  0  0  0  0  0
   13.2708   -1.1131   14.1563 C   0  0  0  0  0  0  0  0  0  0  0  0
   12.0394   -1.6315   14.5132 C   0  0  0  0  0  0  0  0  0  0  0  0
   11.9835   -2.6030   15.4889 C   0  0  0  0  0  0  0  0  0  0  0  0
   10.8103   -3.1861   15.7200 F   0  0  0  0  0  0  0  0  0  0  0  0
   13.1217   -2.9902   16.1906 C   0  0  0  0  0  0  0  0  0  0  0  0
   14.3750   -2.4995   15.7852 C   0  0  0  0  0  0  0  0  0  0  0  0
   14.4450   -1.6262   14.6916 C   0  0  0  0  0  0  0  0  0  0  0  0
   15.7141   -1.1933   14.0621 C   0  0  0  0  0  0  0  0  0  0  0  0
   16.2186   -0.1569   14.4915 O   0  0  0  0  0  0  0  0  0  0  0  0
   16.2782   -1.9758   12.8711 C   0  0  0  0  0  0  0  0  0  0  0  0
   16.0773   -1.1728   11.5705 C   0  0  0  0  0  0  0  0  0  0  0  0
   16.7998   -1.7012   10.4462 O   0  0  0  0  0  0  0  0  0  0  0  0
   18.1158   -2.1565   10.7866 C   0  0  0  0  0  0  0  0  0  0  0  0
   18.5614   -1.7174   12.1773 C   0  0  0  0  0  0  0  0  0  0  0  0
   17.6666   -2.2398   13.1631 O   0  0  0  0  0  0  0  0  0  0  0  0
   12.7874    3.4023   15.2104 H   0  0  0  0  0  0  0  0  0  0  0  0
   11.4421    4.1819   14.4704 H   0  0  0  0  0  0  0  0  0  0  0  0
   13.0582    5.0364   14.7721 H   0  0  0  0  0  0  0  0  0  0  0  0
   11.5329    4.9977   12.6327 H   0  0  0  0  0  0  0  0  0  0  0  0
   13.2325    5.6903   12.9335 H   0  0  0  0  0  0  0  0  0  0  0  0
   12.8328    4.7406   11.5487 H   0  0  0  0  0  0  0  0  0  0  0  0
   14.5236    1.4311   13.2385 H   0  0  0  0  0  0  0  0  0  0  0  0
   13.4951    1.2477   14.6809 H   0  0  0  0  0  0  0  0  0  0  0  0
   11.1352   -1.3068   14.0087 H   0  0  0  0  0  0  0  0  0  0  0  0
   13.0429   -3.7312   16.9827 H   0  0  0  0  0  0  0  0  0  0  0  0
   15.2846   -2.8572   16.2627 H   0  0  0  0  0  0  0  0  0  0  0  0
   15.7793   -2.9436   12.7882 H   0  0  0  0  0  0  0  0  0  0  0  0
   16.3857   -0.1277   11.6975 H   0  0  0  0  0  0  0  0  0  0  0  0
   15.0175   -1.1532   11.2994 H   0  0  0  0  0  0  0  0  0  0  0  0
   18.8074   -1.7903   10.0222 H   0  0  0  0  0  0  0  0  0  0  0  0
   18.0934   -3.2503   10.7288 H   0  0  0  0  0  0  0  0  0  0  0  0
   19.5619   -2.1028   12.3956 H   0  0  0  0  0  0  0  0  0  0  0  0
   18.5932   -0.6261   12.2706 H   0  0  0  0  0  0  0  0  0  0  0  0
  1  2  1  0
  2  3  1  0
  2  4  1  0
  4  5  2  0
  4  6  1  0
  6  7  1  0
  7  8  1  0
  8  9  2  0
  9 10  1  0
 10 11  1  0
 10 12  2  0
 12 13  1  0
 13 14  2  0
 14 15  1  0
 15 16  2  0
 15 17  1  0
 17 18  1  0
 18 19  1  0
 19 20  1  0
 20 21  1  0
 21 22  1  0
 14  8  1  0
 22 17  1  0
  1 23  1  0
  1 24  1  0
  1 25  1  0
  3 26  1  0
  3 27  1  0
  3 28  1  0
  6 29  1  0
  6 30  1  0
  9 31  1  0
 12 32  1  0
 13 33  1  0
 17 34  1  0
 18 35  1  0
 18 36  1  0
 20 37  1  0
 20 38  1  0
 21 39  1  0
 21 40  1  0
M  END
>  <Energy>  (134) 
221.10822049886931

>  <compound_id>  (134) 
1472

>  <target_id>  (134) 
1

>  <reference_id>  (134) 
29

>  <inspiration_ids>  (134) 
[6, 29]

>  <energy_score>  (134) 
37.39083805474121

>  <distance_score>  (134) 
2.0581114962174176

>  <path>  (134) 
/opt/xchem-fragalysis-2/maxwin/BulkDock/SCRATCH/505732/C1472-P29/C1472-P29.minimised.mol

>  <scratch_subdir>  (134) 
/opt/xchem-fragalysis-2/maxwin/BulkDock/SCRATCH/505732/C1472-P29

>  <fragmenstein_runtime>  (134) 
4.283017873764038

>  <fragmenstein_outcome>  (134) 
too moved

>  <fragmenstein_mode>  (134) 
expansion

>  <fragmenstein_error>  (134) 


$$$$
C1478-P6
     RDKit          3D

 42 42  0  0  0  0  0  0  0  0999 V2000
   18.2540   -0.2883   21.0742 C   0  0  0  0  0  0  0  0  0  0  0  0
   17.3087   -0.9564   20.1346 N   0  0  0  0  0  0  0  0  0  0  0  0
   18.3837   -2.0110   20.1487 C   0  0  0  0  0  0  0  0  0  0  0  0
   16.9483   -0.6354   18.7845 C   0  0  0  0  0  0  0  0  0  0  0  0
   17.3840    0.2017   18.0368 O   0  0  0  0  0  0  0  0  0  0  0  0
   15.7900   -1.5606   18.3559 C   0  0  0  0  0  0  0  0  0  0  0  0
   14.9312   -0.8780   17.4529 O   0  0  0  0  0  0  0  0  0  0  0  0
   13.9106   -1.5836   16.8734 C   0  0  0  0  0  0  0  0  0  0  0  0
   13.6593   -2.9422   17.0764 C   0  0  0  0  0  0  0  0  0  0  0  0
   12.5756   -3.5547   16.4447 C   0  0  0  0  0  0  0  0  0  0  0  0
   11.7381   -2.8106   15.6187 C   0  0  0  0  0  0  0  0  0  0  0  0
   10.6965   -3.4223   15.0389 F   0  0  0  0  0  0  0  0  0  0  0  0
   11.9561   -1.4538   15.3823 C   0  0  0  0  0  0  0  0  0  0  0  0
   10.9859   -0.6770   14.7158 N   0  0  0  0  0  0  0  0  0  0  0  0
   13.0530   -0.8525   16.0265 C   0  0  0  0  0  0  0  0  0  0  0  0
   13.2381    0.5034   15.8479 O   0  0  0  0  0  0  0  0  0  0  0  0
   14.3090    0.7553   14.9374 C   0  0  0  0  0  0  0  0  0  0  0  0
   14.0165    0.3284   13.4804 C   0  0  0  0  0  0  0  0  0  0  0  0
   13.0874    0.8042   12.8780 O   0  0  0  0  0  0  0  0  0  0  0  0
   14.9352   -0.7049   13.1090 N   0  0  0  0  0  0  0  0  0  0  0  0
   16.1374   -0.1098   12.4301 C   0  0  0  0  0  0  0  0  0  0  0  0
   14.9685   -1.5937   11.9124 C   0  0  0  0  0  0  0  0  0  0  0  0
   19.2062    0.0354   20.6266 H   0  0  0  0  0  0  0  0  0  0  0  0
   18.3442   -0.7696   22.0586 H   0  0  0  0  0  0  0  0  0  0  0  0
   17.7554    0.6671   21.2935 H   0  0  0  0  0  0  0  0  0  0  0  0
   19.3095   -1.7156   19.6296 H   0  0  0  0  0  0  0  0  0  0  0  0
   17.9962   -2.8298   19.5239 H   0  0  0  0  0  0  0  0  0  0  0  0
   18.5495   -2.4974   21.1221 H   0  0  0  0  0  0  0  0  0  0  0  0
   16.2512   -2.4274   17.8677 H   0  0  0  0  0  0  0  0  0  0  0  0
   15.2214   -1.8737   19.2396 H   0  0  0  0  0  0  0  0  0  0  0  0
   14.2730   -3.5479   17.7318 H   0  0  0  0  0  0  0  0  0  0  0  0
   12.3631   -4.6080   16.6034 H   0  0  0  0  0  0  0  0  0  0  0  0
   10.4208   -1.2113   14.0379 H   0  0  0  0  0  0  0  0  0  0  0  0
   11.3967    0.1383   14.2590 H   0  0  0  0  0  0  0  0  0  0  0  0
   15.2522    0.3273   15.2962 H   0  0  0  0  0  0  0  0  0  0  0  0
   14.4639    1.8406   14.9155 H   0  0  0  0  0  0  0  0  0  0  0  0
   17.0062   -0.7811   12.3541 H   0  0  0  0  0  0  0  0  0  0  0  0
   15.9101    0.4391   11.5023 H   0  0  0  0  0  0  0  0  0  0  0  0
   16.4905    0.6828   13.1075 H   0  0  0  0  0  0  0  0  0  0  0  0
   14.1027   -2.2529   12.0692 H   0  0  0  0  0  0  0  0  0  0  0  0
   15.8206   -2.2869   11.8711 H   0  0  0  0  0  0  0  0  0  0  0  0
   14.7274   -1.0990   10.9594 H   0  0  0  0  0  0  0  0  0  0  0  0
  1  2  1  0
  2  3  1  0
  2  4  1  0
  4  5  2  0
  4  6  1  0
  6  7  1  0
  7  8  1  0
  8  9  2  0
  9 10  1  0
 10 11  2  0
 11 12  1  0
 11 13  1  0
 13 14  1  0
 13 15  2  0
 15 16  1  0
 16 17  1  0
 17 18  1  0
 18 19  2  0
 18 20  1  0
 20 21  1  0
 20 22  1  0
 15  8  1  0
  1 23  1  0
  1 24  1  0
  1 25  1  0
  3 26  1  0
  3 27  1  0
  3 28  1  0
  6 29  1  0
  6 30  1  0
  9 31  1  0
 10 32  1  0
 14 33  1  0
 14 34  1  0
 17 35  1  0
 17 36  1  0
 21 37  1  0
 21 38  1  0
 21 39  1  0
 22 40  1  0
 22 41  1  0
 22 42  1  0
M  END
>  <Energy>  (135) 
233.23742636291135

>  <compound_id>  (135) 
1478

>  <target_id>  (135) 
1

>  <reference_id>  (135) 
6

>  <inspiration_ids>  (135) 
[6, 71]

>  <energy_score>  (135) 
106.56616883266474

>  <distance_score>  (135) 
2.5803663929343075

>  <path>  (135) 
/opt/xchem-fragalysis-2/maxwin/BulkDock/SCRATCH/505732/C1478-P6/C1478-P6.minimised.mol

>  <scratch_subdir>  (135) 
/opt/xchem-fragalysis-2/maxwin/BulkDock/SCRATCH/505732/C1478-P6

>  <fragmenstein_runtime>  (135) 
4.231047630310059

>  <fragmenstein_outcome>  (135) 
too moved

>  <fragmenstein_mode>  (135) 
expansion

>  <fragmenstein_error>  (135) 


$$$$
C1478-P71
     RDKit          3D

 42 42  0  0  0  0  0  0  0  0999 V2000
   18.0731    0.7113   20.6321 C   0  0  0  0  0  0  0  0  0  0  0  0
   16.9199    0.1053   19.9074 N   0  0  0  0  0  0  0  0  0  0  0  0
   18.0312   -0.6103   19.1847 C   0  0  0  0  0  0  0  0  0  0  0  0
   16.0051    0.6748   18.9653 C   0  0  0  0  0  0  0  0  0  0  0  0
   15.9884    1.7636   18.4504 O   0  0  0  0  0  0  0  0  0  0  0  0
   14.9025   -0.3471   18.6504 C   0  0  0  0  0  0  0  0  0  0  0  0
   15.1628   -0.9079   17.3624 O   0  0  0  0  0  0  0  0  0  0  0  0
   14.0520   -1.5265   16.8520 C   0  0  0  0  0  0  0  0  0  0  0  0
   14.0154   -2.9181   16.8563 C   0  0  0  0  0  0  0  0  0  0  0  0
   12.9227   -3.5728   16.2926 C   0  0  0  0  0  0  0  0  0  0  0  0
   11.9095   -2.8362   15.6775 C   0  0  0  0  0  0  0  0  0  0  0  0
   10.8833   -3.4927   15.1196 F   0  0  0  0  0  0  0  0  0  0  0  0
   11.9341   -1.4393   15.6269 C   0  0  0  0  0  0  0  0  0  0  0  0
   10.8051   -0.7208   15.1746 N   0  0  0  0  0  0  0  0  0  0  0  0
   13.0106   -0.7967   16.2589 C   0  0  0  0  0  0  0  0  0  0  0  0
   13.0002    0.5686   16.3634 O   0  0  0  0  0  0  0  0  0  0  0  0
   13.7134    1.1741   15.2830 C   0  0  0  0  0  0  0  0  0  0  0  0
   12.8583    2.3650   14.8366 C   0  0  0  0  0  0  0  0  0  0  0  0
   11.8140    2.1751   14.2638 O   0  0  0  0  0  0  0  0  0  0  0  0
   13.4889    3.5826   15.2398 N   0  0  0  0  0  0  0  0  0  0  0  0
   13.0625    3.9505   16.6419 C   0  0  0  0  0  0  0  0  0  0  0  0
   13.1153    5.0017   14.9854 C   0  0  0  0  0  0  0  0  0  0  0  0
   18.6130    0.0223   21.2973 H   0  0  0  0  0  0  0  0  0  0  0  0
   17.5915    1.4194   21.3224 H   0  0  0  0  0  0  0  0  0  0  0  0
   18.7147    1.3675   20.0244 H   0  0  0  0  0  0  0  0  0  0  0  0
   18.6176    0.0352   18.5120 H   0  0  0  0  0  0  0  0  0  0  0  0
   17.5333   -1.3070   18.4948 H   0  0  0  0  0  0  0  0  0  0  0  0
   18.6421   -1.2781   19.8109 H   0  0  0  0  0  0  0  0  0  0  0  0
   13.9488    0.1889   18.7014 H   0  0  0  0  0  0  0  0  0  0  0  0
   14.8900   -1.1455   19.4021 H   0  0  0  0  0  0  0  0  0  0  0  0
   14.8236   -3.4869   17.3055 H   0  0  0  0  0  0  0  0  0  0  0  0
   12.8502   -4.6548   16.3211 H   0  0  0  0  0  0  0  0  0  0  0  0
   10.3032   -1.2116   14.4185 H   0  0  0  0  0  0  0  0  0  0  0  0
   11.0313    0.2308   14.8745 H   0  0  0  0  0  0  0  0  0  0  0  0
   13.8535    0.5147   14.4164 H   0  0  0  0  0  0  0  0  0  0  0  0
   14.6965    1.4990   15.6395 H   0  0  0  0  0  0  0  0  0  0  0  0
   13.2651    3.0615   17.2565 H   0  0  0  0  0  0  0  0  0  0  0  0
   13.6714    4.7295   17.1251 H   0  0  0  0  0  0  0  0  0  0  0  0
   11.9765    4.0948   16.7542 H   0  0  0  0  0  0  0  0  0  0  0  0
   13.2818    5.1153   13.9041 H   0  0  0  0  0  0  0  0  0  0  0  0
   13.7911    5.7437   15.4341 H   0  0  0  0  0  0  0  0  0  0  0  0
   12.0433    5.2289   15.0880 H   0  0  0  0  0  0  0  0  0  0  0  0
  1  2  1  0
  2  3  1  0
  2  4  1  0
  4  5  2  0
  4  6  1  0
  6  7  1  0
  7  8  1  0
  8  9  2  0
  9 10  1  0
 10 11  2  0
 11 12  1  0
 11 13  1  0
 13 14  1  0
 13 15  2  0
 15 16  1  0
 16 17  1  0
 17 18  1  0
 18 19  2  0
 18 20  1  0
 20 21  1  0
 20 22  1  0
 15  8  1  0
  1 23  1  0
  1 24  1  0
  1 25  1  0
  3 26  1  0
  3 27  1  0
  3 28  1  0
  6 29  1  0
  6 30  1  0
  9 31  1  0
 10 32  1  0
 14 33  1  0
 14 34  1  0
 17 35  1  0
 17 36  1  0
 21 37  1  0
 21 38  1  0
 21 39  1  0
 22 40  1  0
 22 41  1  0
 22 42  1  0
M  END
>  <Energy>  (136) 
228.8520364461219

>  <compound_id>  (136) 
1478

>  <target_id>  (136) 
1

>  <reference_id>  (136) 
71

>  <inspiration_ids>  (136) 
[6, 71]

>  <energy_score>  (136) 
102.18077891587598

>  <distance_score>  (136) 
1.6693225929998388

>  <path>  (136) 
/opt/xchem-fragalysis-2/maxwin/BulkDock/SCRATCH/505732/C1478-P71/C1478-P71.minimised.mol

>  <scratch_subdir>  (136) 
/opt/xchem-fragalysis-2/maxwin/BulkDock/SCRATCH/505732/C1478-P71

>  <fragmenstein_runtime>  (136) 
4.388624906539917

>  <fragmenstein_outcome>  (136) 
too moved

>  <fragmenstein_mode>  (136) 
expansion

>  <fragmenstein_error>  (136) 


$$$$
C1483-P6
     RDKit          3D

 36 38  0  0  0  0  0  0  0  0999 V2000
   17.3347   -4.5868   19.6811 C   0  0  0  0  0  0  0  0  0  0  0  0
   16.5821   -4.4118   18.4650 N   0  0  0  0  0  0  0  0  0  0  0  0
   15.3622   -3.6407   18.4035 C   0  0  0  0  0  0  0  0  0  0  0  0
   15.0187   -3.7405   16.9806 N   0  0  0  0  0  0  0  0  0  0  0  0
   16.3248   -3.6957   16.2814 C   0  0  0  0  0  0  0  0  0  0  0  0
   16.9093   -2.2761   16.1341 C   0  0  0  0  0  0  0  0  0  0  0  0
   15.8880   -1.2183   15.7174 C   0  0  0  0  0  0  0  0  0  0  0  0
   16.4776    0.0618   15.9327 O   0  0  0  0  0  0  0  0  0  0  0  0
   14.5914   -1.3572   16.5410 C   0  0  0  0  0  0  0  0  0  0  0  0
   13.5383   -0.2997   16.2097 C   0  0  0  0  0  0  0  0  0  0  0  0
   12.5768   -0.7622   15.1393 C   0  0  0  0  0  0  0  0  0  0  0  0
   11.7906   -1.9749   15.6007 C   0  0  0  0  0  0  0  0  0  0  0  0
   12.5697   -2.9274   16.5135 C   0  0  0  0  0  0  0  0  0  0  0  0
   12.1262   -4.1659   16.1720 F   0  0  0  0  0  0  0  0  0  0  0  0
   14.0955   -2.7929   16.3374 C   0  0  0  0  0  0  0  0  0  0  0  0
   17.2209   -4.4451   17.2337 C   0  0  0  0  0  0  0  0  0  0  0  0
   18.3203   -4.8967   16.9725 O   0  0  0  0  0  0  0  0  0  0  0  0
   16.6695   -4.9675   20.4603 H   0  0  0  0  0  0  0  0  0  0  0  0
   17.7483   -3.6204   19.9832 H   0  0  0  0  0  0  0  0  0  0  0  0
   18.1562   -5.2912   19.5242 H   0  0  0  0  0  0  0  0  0  0  0  0
   15.5955   -2.6315   18.7518 H   0  0  0  0  0  0  0  0  0  0  0  0
   14.5991   -4.0840   19.0483 H   0  0  0  0  0  0  0  0  0  0  0  0
   16.2687   -4.2236   15.3246 H   0  0  0  0  0  0  0  0  0  0  0  0
   17.3860   -1.9518   17.0709 H   0  0  0  0  0  0  0  0  0  0  0  0
   17.7314   -2.2933   15.4061 H   0  0  0  0  0  0  0  0  0  0  0  0
   15.6799   -1.3191   14.6447 H   0  0  0  0  0  0  0  0  0  0  0  0
   16.1216    0.6720   15.2640 H   0  0  0  0  0  0  0  0  0  0  0  0
   14.8399   -1.1542   17.5890 H   0  0  0  0  0  0  0  0  0  0  0  0
   13.9999    0.6465   15.9091 H   0  0  0  0  0  0  0  0  0  0  0  0
   12.9653   -0.0732   17.1175 H   0  0  0  0  0  0  0  0  0  0  0  0
   13.1289   -1.0031   14.2224 H   0  0  0  0  0  0  0  0  0  0  0  0
   11.8825    0.0448   14.8779 H   0  0  0  0  0  0  0  0  0  0  0  0
   10.8870   -1.6425   16.1202 H   0  0  0  0  0  0  0  0  0  0  0  0
   11.4268   -2.5176   14.7188 H   0  0  0  0  0  0  0  0  0  0  0  0
   12.3295   -2.7683   17.5625 H   0  0  0  0  0  0  0  0  0  0  0  0
   14.2012   -3.0065   15.2681 H   0  0  0  0  0  0  0  0  0  0  0  0
  1  2  1  0
  2  3  1  0
  3  4  1  0
  4  5  1  0
  5  6  1  0
  6  7  1  0
  7  8  1  0
  7  9  1  0
  9 10  1  0
 10 11  1  0
 11 12  1  0
 12 13  1  0
 13 14  1  0
 13 15  1  0
  5 16  1  0
 16 17  2  0
 16  2  1  0
 15  4  1  0
 15  9  1  0
  1 18  1  0
  1 19  1  0
  1 20  1  0
  3 21  1  0
  3 22  1  0
  5 23  1  0
  6 24  1  0
  6 25  1  0
  7 26  1  0
  8 27  1  0
  9 28  1  0
 10 29  1  0
 10 30  1  0
 11 31  1  0
 11 32  1  0
 12 33  1  0
 12 34  1  0
 13 35  1  0
 15 36  1  0
M  END
>  <Energy>  (137) 
38.318142814424618

>  <compound_id>  (137) 
1483

>  <target_id>  (137) 
1

>  <reference_id>  (137) 
6

>  <inspiration_ids>  (137) 
[6, 86]

>  <energy_score>  (137) 
-33.992261301113984

>  <distance_score>  (137) 
2.0079818343670452

>  <path>  (137) 
/opt/xchem-fragalysis-2/maxwin/BulkDock/SCRATCH/505732/C1483-P6/C1483-P6.minimised.mol

>  <scratch_subdir>  (137) 
/opt/xchem-fragalysis-2/maxwin/BulkDock/SCRATCH/505732/C1483-P6

>  <fragmenstein_runtime>  (137) 
1.3109803199768066

>  <fragmenstein_outcome>  (137) 
too moved

>  <fragmenstein_mode>  (137) 
expansion

>  <fragmenstein_error>  (137) 


$$$$
C1483-P86
     RDKit          3D

 36 38  0  0  0  0  0  0  0  0999 V2000
   16.8989   -5.0387   19.7770 C   0  0  0  0  0  0  0  0  0  0  0  0
   16.2951   -4.8256   18.4874 N   0  0  0  0  0  0  0  0  0  0  0  0
   15.0044   -4.1884   18.3189 C   0  0  0  0  0  0  0  0  0  0  0  0
   14.9126   -4.0724   16.8615 N   0  0  0  0  0  0  0  0  0  0  0  0
   16.2987   -3.7890   16.4295 C   0  0  0  0  0  0  0  0  0  0  0  0
   16.7303   -2.3183   16.6351 C   0  0  0  0  0  0  0  0  0  0  0  0
   15.6923   -1.2906   16.1833 C   0  0  0  0  0  0  0  0  0  0  0  0
   16.0471   -0.0086   16.6975 O   0  0  0  0  0  0  0  0  0  0  0  0
   14.2813   -1.6675   16.6743 C   0  0  0  0  0  0  0  0  0  0  0  0
   13.1993   -0.7007   16.1700 C   0  0  0  0  0  0  0  0  0  0  0  0
   12.5706   -1.1465   14.8563 C   0  0  0  0  0  0  0  0  0  0  0  0
   11.9237   -2.5323   14.9426 C   0  0  0  0  0  0  0  0  0  0  0  0
   12.5309   -3.3980   16.0461 C   0  0  0  0  0  0  0  0  0  0  0  0
   11.8764   -3.0585   17.1699 F   0  0  0  0  0  0  0  0  0  0  0  0
   14.0250   -3.1007   16.2135 C   0  0  0  0  0  0  0  0  0  0  0  0
   17.1071   -4.6186   17.3834 C   0  0  0  0  0  0  0  0  0  0  0  0
   18.2781   -4.9197   17.2404 O   0  0  0  0  0  0  0  0  0  0  0  0
   17.8097   -5.6362   19.6794 H   0  0  0  0  0  0  0  0  0  0  0  0
   16.1870   -5.5602   20.4220 H   0  0  0  0  0  0  0  0  0  0  0  0
   17.1560   -4.0689   20.2131 H   0  0  0  0  0  0  0  0  0  0  0  0
   15.0263   -3.2319   18.8482 H   0  0  0  0  0  0  0  0  0  0  0  0
   14.2192   -4.8292   18.7289 H   0  0  0  0  0  0  0  0  0  0  0  0
   16.4634   -4.1303   15.4020 H   0  0  0  0  0  0  0  0  0  0  0  0
   16.9753   -2.1253   17.6898 H   0  0  0  0  0  0  0  0  0  0  0  0
   17.6739   -2.1388   16.1027 H   0  0  0  0  0  0  0  0  0  0  0  0
   15.7016   -1.2176   15.0887 H   0  0  0  0  0  0  0  0  0  0  0  0
   16.9415    0.2024   16.3763 H   0  0  0  0  0  0  0  0  0  0  0  0
   14.2603   -1.5799   17.7673 H   0  0  0  0  0  0  0  0  0  0  0  0
   13.5957    0.3152   16.0630 H   0  0  0  0  0  0  0  0  0  0  0  0
   12.4037   -0.6309   16.9199 H   0  0  0  0  0  0  0  0  0  0  0  0
   13.3409   -1.1572   14.0747 H   0  0  0  0  0  0  0  0  0  0  0  0
   11.8202   -0.4162   14.5317 H   0  0  0  0  0  0  0  0  0  0  0  0
   10.8509   -2.4151   15.1356 H   0  0  0  0  0  0  0  0  0  0  0  0
   12.0177   -3.0234   13.9682 H   0  0  0  0  0  0  0  0  0  0  0  0
   12.3393   -4.4552   15.8892 H   0  0  0  0  0  0  0  0  0  0  0  0
   14.3634   -3.1297   15.1707 H   0  0  0  0  0  0  0  0  0  0  0  0
  1  2  1  0
  2  3  1  0
  3  4  1  0
  4  5  1  0
  5  6  1  0
  6  7  1  0
  7  8  1  0
  7  9  1  0
  9 10  1  0
 10 11  1  0
 11 12  1  0
 12 13  1  0
 13 14  1  0
 13 15  1  0
  5 16  1  0
 16 17  2  0
 16  2  1  0
 15  4  1  0
 15  9  1  0
  1 18  1  0
  1 19  1  0
  1 20  1  0
  3 21  1  0
  3 22  1  0
  5 23  1  0
  6 24  1  0
  6 25  1  0
  7 26  1  0
  8 27  1  0
  9 28  1  0
 10 29  1  0
 10 30  1  0
 11 31  1  0
 11 32  1  0
 12 33  1  0
 12 34  1  0
 13 35  1  0
 15 36  1  0
M  END
>  <Energy>  (138) 
35.664911491220018

>  <compound_id>  (138) 
1483

>  <target_id>  (138) 
1

>  <reference_id>  (138) 
86

>  <inspiration_ids>  (138) 
[6, 86]

>  <energy_score>  (138) 
-36.64549262431919

>  <distance_score>  (138) 
1.9623302556713913

>  <path>  (138) 
/opt/xchem-fragalysis-2/maxwin/BulkDock/SCRATCH/505732/C1483-P86/C1483-P86.minimised.mol

>  <scratch_subdir>  (138) 
/opt/xchem-fragalysis-2/maxwin/BulkDock/SCRATCH/505732/C1483-P86

>  <fragmenstein_runtime>  (138) 
1.3940620422363281

>  <fragmenstein_outcome>  (138) 
too moved

>  <fragmenstein_mode>  (138) 
expansion

>  <fragmenstein_error>  (138) 


$$$$
C1486-P6
     RDKit          3D

 46 46  0  0  0  0  0  0  0  0999 V2000
   16.5936    2.9137   15.2902 C   0  0  0  0  0  0  0  0  0  0  0  0
   15.7150    2.3634   14.1963 N   0  0  0  0  0  0  0  0  0  0  0  0
   16.0691    3.6842   13.5969 C   0  0  0  0  0  0  0  0  0  0  0  0
   14.3927    1.8503   14.7561 C   0  0  0  0  0  0  0  0  0  0  0  0
   13.3658    2.4065   14.9172 O   0  0  0  0  0  0  0  0  0  0  0  0
   14.5967    0.3414   15.0492 C   0  0  0  0  0  0  0  0  0  0  0  0
   13.9046   -0.0838   16.2870 N   0  0  0  0  0  0  0  0  0  0  0  0
   14.3084    0.5665   17.5211 C   0  0  0  0  0  0  0  0  0  0  0  0
   15.6562    0.3468   18.0216 N   0  0  0  0  0  0  0  0  0  0  0  0
   15.8949    0.7418   19.4327 C   0  0  0  0  0  0  0  0  0  0  0  0
   17.4151    0.5668   19.6506 C   0  0  0  0  0  0  0  0  0  0  0  0
   15.1467   -0.1882   20.4385 C   0  0  0  0  0  0  0  0  0  0  0  0
   15.3745    0.1994   21.7933 O   0  0  0  0  0  0  0  0  0  0  0  0
   15.5218    2.2311   19.7032 C   0  0  0  0  0  0  0  0  0  0  0  0
   15.9733    2.7003   20.9718 O   0  0  0  0  0  0  0  0  0  0  0  0
   13.3517   -1.3570   16.2990 C   0  0  0  0  0  0  0  0  0  0  0  0
   13.6491   -2.3029   17.2900 C   0  0  0  0  0  0  0  0  0  0  0  0
   13.0237   -3.5457   17.3243 C   0  0  0  0  0  0  0  0  0  0  0  0
   12.0944   -3.8768   16.3548 C   0  0  0  0  0  0  0  0  0  0  0  0
   11.7859   -2.9574   15.3685 C   0  0  0  0  0  0  0  0  0  0  0  0
   10.8627   -3.2661   14.4541 F   0  0  0  0  0  0  0  0  0  0  0  0
   12.4032   -1.7148   15.3307 C   0  0  0  0  0  0  0  0  0  0  0  0
   16.6552    2.1046   16.0306 H   0  0  0  0  0  0  0  0  0  0  0  0
   17.6491    3.0736   15.0200 H   0  0  0  0  0  0  0  0  0  0  0  0
   16.1386    3.7344   15.8676 H   0  0  0  0  0  0  0  0  0  0  0  0
   15.5061    3.6796   12.6515 H   0  0  0  0  0  0  0  0  0  0  0  0
   17.1144    3.7847   13.2691 H   0  0  0  0  0  0  0  0  0  0  0  0
   15.6505    4.5642   14.1099 H   0  0  0  0  0  0  0  0  0  0  0  0
   15.6629    0.1025   15.1361 H   0  0  0  0  0  0  0  0  0  0  0  0
   14.2287   -0.1863   14.1612 H   0  0  0  0  0  0  0  0  0  0  0  0
   14.1780    1.6464   17.3866 H   0  0  0  0  0  0  0  0  0  0  0  0
   13.5709    0.3072   18.2840 H   0  0  0  0  0  0  0  0  0  0  0  0
   15.8929   -0.6315   17.8830 H   0  0  0  0  0  0  0  0  0  0  0  0
   17.7143    0.8046   20.6771 H   0  0  0  0  0  0  0  0  0  0  0  0
   17.7293   -0.4658   19.4557 H   0  0  0  0  0  0  0  0  0  0  0  0
   17.9882    1.2203   18.9818 H   0  0  0  0  0  0  0  0  0  0  0  0
   15.4725   -1.2281   20.3226 H   0  0  0  0  0  0  0  0  0  0  0  0
   14.0663   -0.1514   20.2818 H   0  0  0  0  0  0  0  0  0  0  0  0
   14.8188   -0.3893   22.3417 H   0  0  0  0  0  0  0  0  0  0  0  0
   14.4365    2.3763   19.6677 H   0  0  0  0  0  0  0  0  0  0  0  0
   15.9685    2.8821   18.9432 H   0  0  0  0  0  0  0  0  0  0  0  0
   15.7798    1.9842   21.6152 H   0  0  0  0  0  0  0  0  0  0  0  0
   14.3608   -2.0893   18.0782 H   0  0  0  0  0  0  0  0  0  0  0  0
   13.2279   -4.2285   18.1394 H   0  0  0  0  0  0  0  0  0  0  0  0
   11.5959   -4.8369   16.3808 H   0  0  0  0  0  0  0  0  0  0  0  0
   12.0963   -1.0152   14.5579 H   0  0  0  0  0  0  0  0  0  0  0  0
  1  2  1  0
  2  3  1  0
  2  4  1  0
  4  5  2  0
  4  6  1  0
  6  7  1  0
  7  8  1  0
  8  9  1  0
  9 10  1  0
 10 11  1  0
 10 12  1  0
 12 13  1  0
 10 14  1  0
 14 15  1  0
  7 16  1  0
 16 17  2  0
 17 18  1  0
 18 19  2  0
 19 20  1  0
 20 21  1  0
 20 22  2  0
 22 16  1  0
  1 23  1  0
  1 24  1  0
  1 25  1  0
  3 26  1  0
  3 27  1  0
  3 28  1  0
  6 29  1  0
  6 30  1  0
  8 31  1  0
  8 32  1  0
  9 33  1  0
 11 34  1  0
 11 35  1  0
 11 36  1  0
 12 37  1  0
 12 38  1  0
 13 39  1  0
 14 40  1  0
 14 41  1  0
 15 42  1  0
 17 43  1  0
 18 44  1  0
 19 45  1  0
 22 46  1  0
M  END
>  <Energy>  (139) 
128.67500212526016

>  <compound_id>  (139) 
1486

>  <target_id>  (139) 
1

>  <reference_id>  (139) 
6

>  <inspiration_ids>  (139) 
[6, 103]

>  <energy_score>  (139) 
35.42343265537539

>  <distance_score>  (139) 
1.6758451454634329

>  <path>  (139) 
/opt/xchem-fragalysis-2/maxwin/BulkDock/SCRATCH/505732/C1486-P6/C1486-P6.minimised.mol

>  <scratch_subdir>  (139) 
/opt/xchem-fragalysis-2/maxwin/BulkDock/SCRATCH/505732/C1486-P6

>  <fragmenstein_runtime>  (139) 
2.7904043197631836

>  <fragmenstein_outcome>  (139) 
too moved

>  <fragmenstein_mode>  (139) 
expansion

>  <fragmenstein_error>  (139) 


$$$$
C1486-P103
     RDKit          3D

 46 46  0  0  0  0  0  0  0  0999 V2000
   13.8248    4.1755   15.6485 C   0  0  0  0  0  0  0  0  0  0  0  0
   14.6231    2.8987   15.6612 N   0  0  0  0  0  0  0  0  0  0  0  0
   15.5535    3.7717   14.8840 C   0  0  0  0  0  0  0  0  0  0  0  0
   13.7730    1.7114   15.2183 C   0  0  0  0  0  0  0  0  0  0  0  0
   13.5944    1.2608   14.1449 O   0  0  0  0  0  0  0  0  0  0  0  0
   13.1910    1.0874   16.5056 C   0  0  0  0  0  0  0  0  0  0  0  0
   13.8818   -0.1474   16.9473 N   0  0  0  0  0  0  0  0  0  0  0  0
   15.3386   -0.0748   17.0136 C   0  0  0  0  0  0  0  0  0  0  0  0
   15.9879    0.8851   17.8986 N   0  0  0  0  0  0  0  0  0  0  0  0
   16.0684    0.5436   19.3440 C   0  0  0  0  0  0  0  0  0  0  0  0
   16.6689    1.7974   20.0227 C   0  0  0  0  0  0  0  0  0  0  0  0
   17.0531   -0.6382   19.5638 C   0  0  0  0  0  0  0  0  0  0  0  0
   18.2511   -0.4414   18.8039 O   0  0  0  0  0  0  0  0  0  0  0  0
   14.7067    0.2249   20.0030 C   0  0  0  0  0  0  0  0  0  0  0  0
   14.8213   -0.0104   21.4032 O   0  0  0  0  0  0  0  0  0  0  0  0
   13.3451   -1.4007   16.6362 C   0  0  0  0  0  0  0  0  0  0  0  0
   13.7400   -2.5281   17.3895 C   0  0  0  0  0  0  0  0  0  0  0  0
   13.1381   -3.7718   17.2399 C   0  0  0  0  0  0  0  0  0  0  0  0
   12.1253   -3.9180   16.3134 C   0  0  0  0  0  0  0  0  0  0  0  0
   11.7599   -2.8476   15.5160 C   0  0  0  0  0  0  0  0  0  0  0  0
   10.7812   -3.0118   14.6213 F   0  0  0  0  0  0  0  0  0  0  0  0
   12.3553   -1.6005   15.6675 C   0  0  0  0  0  0  0  0  0  0  0  0
   14.2688    5.0154   16.2048 H   0  0  0  0  0  0  0  0  0  0  0  0
   13.4069    4.4455   14.6653 H   0  0  0  0  0  0  0  0  0  0  0  0
   12.9220    3.9430   16.2335 H   0  0  0  0  0  0  0  0  0  0  0  0
   16.0383    4.5730   15.4612 H   0  0  0  0  0  0  0  0  0  0  0  0
   15.2023    4.0604   13.8811 H   0  0  0  0  0  0  0  0  0  0  0  0
   16.3845    3.0894   14.6496 H   0  0  0  0  0  0  0  0  0  0  0  0
   12.1165    0.9426   16.3496 H   0  0  0  0  0  0  0  0  0  0  0  0
   13.2544    1.8121   17.3264 H   0  0  0  0  0  0  0  0  0  0  0  0
   15.7025    0.1556   16.0032 H   0  0  0  0  0  0  0  0  0  0  0  0
   15.7957   -1.0528   17.1950 H   0  0  0  0  0  0  0  0  0  0  0  0
   15.5244    1.7830   17.7700 H   0  0  0  0  0  0  0  0  0  0  0  0
   16.8522    1.6271   21.0897 H   0  0  0  0  0  0  0  0  0  0  0  0
   17.6267    2.0842   19.5723 H   0  0  0  0  0  0  0  0  0  0  0  0
   15.9931    2.6569   19.9374 H   0  0  0  0  0  0  0  0  0  0  0  0
   16.6158   -1.5899   19.2461 H   0  0  0  0  0  0  0  0  0  0  0  0
   17.3384   -0.7383   20.6162 H   0  0  0  0  0  0  0  0  0  0  0  0
   17.9780    0.1101   18.0437 H   0  0  0  0  0  0  0  0  0  0  0  0
   14.2690   -0.6720   19.5687 H   0  0  0  0  0  0  0  0  0  0  0  0
   14.0200    1.0632   19.8602 H   0  0  0  0  0  0  0  0  0  0  0  0
   13.9774   -0.4080   21.7003 H   0  0  0  0  0  0  0  0  0  0  0  0
   14.4861   -2.4392   18.1745 H   0  0  0  0  0  0  0  0  0  0  0  0
   13.4234   -4.5953   17.8848 H   0  0  0  0  0  0  0  0  0  0  0  0
   11.6020   -4.8583   16.2261 H   0  0  0  0  0  0  0  0  0  0  0  0
   12.0198   -0.8093   15.0054 H   0  0  0  0  0  0  0  0  0  0  0  0
  1  2  1  0
  2  3  1  0
  2  4  1  0
  4  5  2  0
  4  6  1  0
  6  7  1  0
  7  8  1  0
  8  9  1  0
  9 10  1  0
 10 11  1  0
 10 12  1  0
 12 13  1  0
 10 14  1  0
 14 15  1  0
  7 16  1  0
 16 17  2  0
 17 18  1  0
 18 19  2  0
 19 20  1  0
 20 21  1  0
 20 22  2  0
 22 16  1  0
  1 23  1  0
  1 24  1  0
  1 25  1  0
  3 26  1  0
  3 27  1  0
  3 28  1  0
  6 29  1  0
  6 30  1  0
  8 31  1  0
  8 32  1  0
  9 33  1  0
 11 34  1  0
 11 35  1  0
 11 36  1  0
 12 37  1  0
 12 38  1  0
 13 39  1  0
 14 40  1  0
 14 41  1  0
 15 42  1  0
 17 43  1  0
 18 44  1  0
 19 45  1  0
 22 46  1  0
M  END
>  <Energy>  (140) 
126.11507439952554

>  <compound_id>  (140) 
1486

>  <target_id>  (140) 
1

>  <reference_id>  (140) 
103

>  <inspiration_ids>  (140) 
[6, 103]

>  <energy_score>  (140) 
32.86350492964286

>  <distance_score>  (140) 
1.1381275289720956

>  <path>  (140) 
/opt/xchem-fragalysis-2/maxwin/BulkDock/SCRATCH/505732/C1486-P103/C1486-P103.minimised.mol

>  <scratch_subdir>  (140) 
/opt/xchem-fragalysis-2/maxwin/BulkDock/SCRATCH/505732/C1486-P103

>  <fragmenstein_runtime>  (140) 
2.054584264755249

>  <fragmenstein_outcome>  (140) 
too moved

>  <fragmenstein_mode>  (140) 
expansion

>  <fragmenstein_error>  (140) 


$$$$
C1488-P6
     RDKit          3D

 37 38  0  0  0  0  0  0  0  0999 V2000
   16.5503    1.2415   12.2055 C   0  0  0  0  0  0  0  0  0  0  0  0
   16.4352    0.5039   13.5445 C   0  0  0  0  0  0  0  0  0  0  0  0
   15.6227    1.3192   14.5528 C   0  0  0  0  0  0  0  0  0  0  0  0
   14.1187    1.1785   14.3745 C   0  0  0  0  0  0  0  0  0  0  0  0
   13.5991    2.2727   13.6355 O   0  0  0  0  0  0  0  0  0  0  0  0
   13.7276   -0.1386   13.7162 C   0  0  0  0  0  0  0  0  0  0  0  0
   14.7258   -1.2568   14.0906 C   0  0  0  0  0  0  0  0  0  0  0  0
   14.7503   -1.5574   15.5861 N   0  0  0  0  0  0  0  0  0  0  0  0
   15.7092   -2.5922   15.9738 C   0  0  0  0  0  0  0  0  0  0  0  0
   13.4318   -1.8403   16.0666 C   0  0  0  0  0  0  0  0  0  0  0  0
   12.7016   -0.7418   16.5082 C   0  0  0  0  0  0  0  0  0  0  0  0
   11.3666   -0.6147   16.1375 C   0  0  0  0  0  0  0  0  0  0  0  0
   10.7248   -1.6674   15.5130 C   0  0  0  0  0  0  0  0  0  0  0  0
   11.3981   -2.8664   15.3768 C   0  0  0  0  0  0  0  0  0  0  0  0
   10.7694   -3.8839   14.7918 F   0  0  0  0  0  0  0  0  0  0  0  0
   12.7307   -2.9905   15.7336 C   0  0  0  0  0  0  0  0  0  0  0  0
   15.9014   -0.8431   13.2810 N   0  0  0  0  0  0  0  0  0  0  0  0
   16.9714   -1.8039   13.4648 O   0  0  0  0  0  0  0  0  0  0  0  0
   16.9929    2.2335   12.3471 H   0  0  0  0  0  0  0  0  0  0  0  0
   17.1951    0.6907   11.5113 H   0  0  0  0  0  0  0  0  0  0  0  0
   15.5754    1.3743   11.7246 H   0  0  0  0  0  0  0  0  0  0  0  0
   17.4530    0.4269   13.9511 H   0  0  0  0  0  0  0  0  0  0  0  0
   15.9224    2.3740   14.5251 H   0  0  0  0  0  0  0  0  0  0  0  0
   15.8830    0.9544   15.5558 H   0  0  0  0  0  0  0  0  0  0  0  0
   13.6686    1.2973   15.3566 H   0  0  0  0  0  0  0  0  0  0  0  0
   12.6389    2.1386   13.5611 H   0  0  0  0  0  0  0  0  0  0  0  0
   12.6853   -0.3894   13.9083 H   0  0  0  0  0  0  0  0  0  0  0  0
   13.7154   -0.0054   12.6220 H   0  0  0  0  0  0  0  0  0  0  0  0
   14.3663   -2.1672   13.5943 H   0  0  0  0  0  0  0  0  0  0  0  0
   15.5610   -2.8999   17.0162 H   0  0  0  0  0  0  0  0  0  0  0  0
   16.7266   -2.1930   15.9171 H   0  0  0  0  0  0  0  0  0  0  0  0
   15.6454   -3.4795   15.3357 H   0  0  0  0  0  0  0  0  0  0  0  0
   13.2244    0.1104   16.9344 H   0  0  0  0  0  0  0  0  0  0  0  0
   10.8532    0.3346   16.2536 H   0  0  0  0  0  0  0  0  0  0  0  0
    9.7115   -1.5723   15.1339 H   0  0  0  0  0  0  0  0  0  0  0  0
   13.2319   -3.9337   15.6091 H   0  0  0  0  0  0  0  0  0  0  0  0
   16.9229   -2.3145   12.6339 H   0  0  0  0  0  0  0  0  0  0  0  0
  1  2  1  0
  2  3  1  0
  3  4  1  0
  4  5  1  0
  4  6  1  0
  6  7  1  0
  7  8  1  0
  8  9  1  0
  8 10  1  0
 10 11  2  0
 11 12  1  0
 12 13  2  0
 13 14  1  0
 14 15  1  0
 14 16  2  0
  7 17  1  0
 17 18  1  0
 17  2  1  0
 16 10  1  0
  1 19  1  0
  1 20  1  0
  1 21  1  0
  2 22  1  0
  3 23  1  0
  3 24  1  0
  4 25  1  0
  5 26  1  0
  6 27  1  0
  6 28  1  0
  7 29  1  0
  9 30  1  0
  9 31  1  0
  9 32  1  0
 11 33  1  0
 12 34  1  0
 13 35  1  0
 16 36  1  0
 18 37  1  0
M  END
>  <Energy>  (141) 
53.874710903473236

>  <compound_id>  (141) 
1488

>  <target_id>  (141) 
1

>  <reference_id>  (141) 
6

>  <inspiration_ids>  (141) 
[6, 111]

>  <energy_score>  (141) 
-10.491469224431313

>  <distance_score>  (141) 
2.233575206349567

>  <path>  (141) 
/opt/xchem-fragalysis-2/maxwin/BulkDock/SCRATCH/505732/C1488-P6/C1488-P6.minimised.mol

>  <scratch_subdir>  (141) 
/opt/xchem-fragalysis-2/maxwin/BulkDock/SCRATCH/505732/C1488-P6

>  <fragmenstein_runtime>  (141) 
2.3247032165527344

>  <fragmenstein_outcome>  (141) 
too moved

>  <fragmenstein_mode>  (141) 
expansion

>  <fragmenstein_error>  (141) 


$$$$
C1488-P111
     RDKit          3D

 37 38  0  0  0  0  0  0  0  0999 V2000
   17.4041    1.2184   12.4982 C   0  0  0  0  0  0  0  0  0  0  0  0
   16.3095    0.7218   13.4469 C   0  0  0  0  0  0  0  0  0  0  0  0
   15.1307    1.6917   13.3293 C   0  0  0  0  0  0  0  0  0  0  0  0
   13.9418    1.1378   14.0773 C   0  0  0  0  0  0  0  0  0  0  0  0
   12.8283    2.0052   13.9504 O   0  0  0  0  0  0  0  0  0  0  0  0
   13.6391   -0.2448   13.5164 C   0  0  0  0  0  0  0  0  0  0  0  0
   14.7838   -1.2028   13.9084 C   0  0  0  0  0  0  0  0  0  0  0  0
   14.8294   -1.4542   15.4173 N   0  0  0  0  0  0  0  0  0  0  0  0
   15.8183   -2.4522   15.8293 C   0  0  0  0  0  0  0  0  0  0  0  0
   13.5265   -1.7498   15.9390 C   0  0  0  0  0  0  0  0  0  0  0  0
   12.7917   -0.6562   16.3969 C   0  0  0  0  0  0  0  0  0  0  0  0
   11.4345   -0.5671   16.1000 C   0  0  0  0  0  0  0  0  0  0  0  0
   10.7842   -1.6420   15.5214 C   0  0  0  0  0  0  0  0  0  0  0  0
   11.4775   -2.8252   15.3546 C   0  0  0  0  0  0  0  0  0  0  0  0
   10.8436   -3.8581   14.8031 F   0  0  0  0  0  0  0  0  0  0  0  0
   12.8322   -2.9138   15.6340 C   0  0  0  0  0  0  0  0  0  0  0  0
   15.9190   -0.6596   13.0988 N   0  0  0  0  0  0  0  0  0  0  0  0
   17.0723   -1.5107   13.3416 O   0  0  0  0  0  0  0  0  0  0  0  0
   18.3172    0.6209   12.5935 H   0  0  0  0  0  0  0  0  0  0  0  0
   17.0816    1.1743   11.4516 H   0  0  0  0  0  0  0  0  0  0  0  0
   17.6721    2.2565   12.7242 H   0  0  0  0  0  0  0  0  0  0  0  0
   16.6927    0.7472   14.4758 H   0  0  0  0  0  0  0  0  0  0  0  0
   14.8606    1.8669   12.2785 H   0  0  0  0  0  0  0  0  0  0  0  0
   15.3997    2.6770   13.7311 H   0  0  0  0  0  0  0  0  0  0  0  0
   14.2031    1.1264   15.1353 H   0  0  0  0  0  0  0  0  0  0  0  0
   12.0447    1.5109   14.2443 H   0  0  0  0  0  0  0  0  0  0  0  0
   12.6469   -0.6028   13.7788 H   0  0  0  0  0  0  0  0  0  0  0  0
   13.5663   -0.1794   12.4193 H   0  0  0  0  0  0  0  0  0  0  0  0
   14.5474   -2.1680   13.4407 H   0  0  0  0  0  0  0  0  0  0  0  0
   15.6853   -2.7332   16.8812 H   0  0  0  0  0  0  0  0  0  0  0  0
   16.8248   -2.0297   15.7532 H   0  0  0  0  0  0  0  0  0  0  0  0
   15.7733   -3.3587   15.2171 H   0  0  0  0  0  0  0  0  0  0  0  0
   13.3106    0.2219   16.7736 H   0  0  0  0  0  0  0  0  0  0  0  0
   10.9036    0.3696   16.2394 H   0  0  0  0  0  0  0  0  0  0  0  0
    9.7505   -1.5739   15.1949 H   0  0  0  0  0  0  0  0  0  0  0  0
   13.3469   -3.8422   15.4752 H   0  0  0  0  0  0  0  0  0  0  0  0
   17.1896   -1.9355   12.4707 H   0  0  0  0  0  0  0  0  0  0  0  0
  1  2  1  0
  2  3  1  0
  3  4  1  0
  4  5  1  0
  4  6  1  0
  6  7  1  0
  7  8  1  0
  8  9  1  0
  8 10  1  0
 10 11  2  0
 11 12  1  0
 12 13  2  0
 13 14  1  0
 14 15  1  0
 14 16  2  0
  7 17  1  0
 17 18  1  0
 17  2  1  0
 16 10  1  0
  1 19  1  0
  1 20  1  0
  1 21  1  0
  2 22  1  0
  3 23  1  0
  3 24  1  0
  4 25  1  0
  5 26  1  0
  6 27  1  0
  6 28  1  0
  7 29  1  0
  9 30  1  0
  9 31  1  0
  9 32  1  0
 11 33  1  0
 12 34  1  0
 13 35  1  0
 16 36  1  0
 18 37  1  0
M  END
>  <Energy>  (142) 
43.010777690550469

>  <compound_id>  (142) 
1488

>  <target_id>  (142) 
1

>  <reference_id>  (142) 
111

>  <inspiration_ids>  (142) 
[6, 111]

>  <energy_score>  (142) 
-21.35540243735369

>  <distance_score>  (142) 
2.1542533729412523

>  <path>  (142) 
/opt/xchem-fragalysis-2/maxwin/BulkDock/SCRATCH/505732/C1488-P111/C1488-P111.minimised.mol

>  <scratch_subdir>  (142) 
/opt/xchem-fragalysis-2/maxwin/BulkDock/SCRATCH/505732/C1488-P111

>  <fragmenstein_runtime>  (142) 
1.835547685623169

>  <fragmenstein_outcome>  (142) 
too moved

>  <fragmenstein_mode>  (142) 
expansion

>  <fragmenstein_error>  (142) 


$$$$
C1491-P6
     RDKit          3D

 55 58  0  0  0  0  0  0  0  0999 V2000
   13.2883    3.8647   17.9095 C   0  0  0  0  0  0  0  0  0  0  0  0
   14.0006    3.6640   16.5925 N   0  0  0  0  0  0  0  0  0  0  0  0
   13.6527    5.1031   16.4317 C   0  0  0  0  0  0  0  0  0  0  0  0
   13.4951    2.5020   15.9308 C   0  0  0  0  0  0  0  0  0  0  0  0
   12.5960    2.3811   15.1386 O   0  0  0  0  0  0  0  0  0  0  0  0
   14.3019    1.2744   16.3925 C   0  0  0  0  0  0  0  0  0  0  0  0
   13.5123    0.4623   17.2437 O   0  0  0  0  0  0  0  0  0  0  0  0
   13.4196   -0.9153   16.8978 C   0  0  0  0  0  0  0  0  0  0  0  0
   12.9108   -1.1799   15.4741 C   0  0  0  0  0  0  0  0  0  0  0  0
   12.3460   -2.6009   15.4212 C   0  0  0  0  0  0  0  0  0  0  0  0
   11.0690   -2.5694   15.8988 F   0  0  0  0  0  0  0  0  0  0  0  0
   13.1416   -3.5747   16.3012 C   0  0  0  0  0  0  0  0  0  0  0  0
   14.5968   -3.1099   16.4481 C   0  0  0  0  0  0  0  0  0  0  0  0
   14.6360   -1.8430   17.3387 C   0  0  0  0  0  0  0  0  0  0  0  0
   15.9452   -1.1697   17.3014 N   0  0  0  0  0  0  0  0  0  0  0  0
   16.5776   -1.4539   18.5918 C   0  0  0  0  0  0  0  0  0  0  0  0
   17.8764   -0.3459   19.1722 S   0  0  0  0  0  0  0  0  0  0  0  0
   17.6824    1.1072   18.2589 C   0  0  0  0  0  0  0  0  0  0  0  0
   18.0638    1.1641   16.9655 C   0  0  0  0  0  0  0  0  0  0  0  0
   17.9372    2.4105   16.2270 C   0  0  0  0  0  0  0  0  0  0  0  0
   17.4894    3.5343   16.8164 C   0  0  0  0  0  0  0  0  0  0  0  0
   17.1140    3.5020   18.1855 C   0  0  0  0  0  0  0  0  0  0  0  0
   16.6532    4.4283   18.9981 N   0  0  0  0  0  0  0  0  0  0  0  0
   16.4614    3.8478   20.2296 N   0  0  0  0  0  0  0  0  0  0  0  0
   16.8164    2.5854   20.1371 C   0  0  0  0  0  0  0  0  0  0  0  0
   17.2202    2.2901   18.8607 N   0  0  0  0  0  0  0  0  0  0  0  0
   15.5034   -1.7454   19.5312 N   0  0  0  0  0  0  0  0  0  0  0  0
   14.9257   -0.5871   20.2133 C   0  0  0  0  0  0  0  0  0  0  0  0
   14.5168   -2.3716   18.7047 N   0  0  0  0  0  0  0  0  0  0  0  0
   12.1994    3.9891   17.8063 H   0  0  0  0  0  0  0  0  0  0  0  0
   13.3869    2.9097   18.4460 H   0  0  0  0  0  0  0  0  0  0  0  0
   13.7584    4.5864   18.5940 H   0  0  0  0  0  0  0  0  0  0  0  0
   14.0334    5.3424   15.4279 H   0  0  0  0  0  0  0  0  0  0  0  0
   14.2063    5.7865   17.0913 H   0  0  0  0  0  0  0  0  0  0  0  0
   12.5773    5.3177   16.3380 H   0  0  0  0  0  0  0  0  0  0  0  0
   15.1620    1.6022   16.9716 H   0  0  0  0  0  0  0  0  0  0  0  0
   14.6807    0.7592   15.5048 H   0  0  0  0  0  0  0  0  0  0  0  0
   12.5753   -1.2389   17.4921 H   0  0  0  0  0  0  0  0  0  0  0  0
   12.1320   -0.4577   15.2054 H   0  0  0  0  0  0  0  0  0  0  0  0
   13.7228   -1.0681   14.7474 H   0  0  0  0  0  0  0  0  0  0  0  0
   12.2851   -2.9368   14.3833 H   0  0  0  0  0  0  0  0  0  0  0  0
   12.6587   -3.6627   17.2820 H   0  0  0  0  0  0  0  0  0  0  0  0
   13.0982   -4.5847   15.9041 H   0  0  0  0  0  0  0  0  0  0  0  0
   15.2159   -3.9053   16.8760 H   0  0  0  0  0  0  0  0  0  0  0  0
   15.0254   -2.9074   15.4578 H   0  0  0  0  0  0  0  0  0  0  0  0
   16.5268   -1.5930   16.5867 H   0  0  0  0  0  0  0  0  0  0  0  0
   17.1158   -2.4038   18.4631 H   0  0  0  0  0  0  0  0  0  0  0  0
   18.4750    0.3090   16.4386 H   0  0  0  0  0  0  0  0  0  0  0  0
   18.2244    2.4126   15.1794 H   0  0  0  0  0  0  0  0  0  0  0  0
   17.3933    4.4670   16.2722 H   0  0  0  0  0  0  0  0  0  0  0  0
   16.8053    1.8668   20.9423 H   0  0  0  0  0  0  0  0  0  0  0  0
   15.6208   -0.1981   20.9632 H   0  0  0  0  0  0  0  0  0  0  0  0
   14.6452    0.2273   19.5392 H   0  0  0  0  0  0  0  0  0  0  0  0
   14.0358   -0.8814   20.7773 H   0  0  0  0  0  0  0  0  0  0  0  0
   13.5763   -2.4082   19.0865 H   0  0  0  0  0  0  0  0  0  0  0  0
  1  2  1  0
  2  3  1  0
  2  4  1  0
  4  5  2  0
  4  6  1  0
  6  7  1  0
  7  8  1  0
  8  9  1  0
  9 10  1  0
 10 11  1  0
 10 12  1  0
 12 13  1  0
 13 14  1  0
 14 15  1  0
 15 16  1  0
 16 17  1  0
 17 18  1  0
 18 19  2  0
 19 20  1  0
 20 21  2  0
 21 22  1  0
 22 23  2  0
 23 24  1  0
 24 25  2  0
 25 26  1  0
 16 27  1  0
 27 28  1  0
 27 29  1  0
 14  8  1  0
 26 18  1  0
 29 14  1  0
 26 22  1  0
  1 30  1  0
  1 31  1  0
  1 32  1  0
  3 33  1  0
  3 34  1  0
  3 35  1  0
  6 36  1  0
  6 37  1  0
  8 38  1  0
  9 39  1  0
  9 40  1  0
 10 41  1  0
 12 42  1  0
 12 43  1  0
 13 44  1  0
 13 45  1  0
 15 46  1  0
 16 47  1  0
 19 48  1  0
 20 49  1  0
 21 50  1  0
 25 51  1  0
 28 52  1  0
 28 53  1  0
 28 54  1  0
 29 55  1  0
M  END
>  <Energy>  (143) 
152.36205624430272

>  <compound_id>  (143) 
1491

>  <target_id>  (143) 
1

>  <reference_id>  (143) 
6

>  <inspiration_ids>  (143) 
[6, 117]

>  <energy_score>  (143) 
-27.026357884882373

>  <distance_score>  (143) 
2.520027431381335

>  <path>  (143) 
/opt/xchem-fragalysis-2/maxwin/BulkDock/SCRATCH/505732/C1491-P6/C1491-P6.minimised.mol

>  <scratch_subdir>  (143) 
/opt/xchem-fragalysis-2/maxwin/BulkDock/SCRATCH/505732/C1491-P6

>  <fragmenstein_runtime>  (143) 
9.041725158691406

>  <fragmenstein_outcome>  (143) 
too moved

>  <fragmenstein_mode>  (143) 
expansion

>  <fragmenstein_error>  (143) 


$$$$
C1491-P117
     RDKit          3D

 55 58  0  0  0  0  0  0  0  0999 V2000
   16.7064    2.4020   14.4775 C   0  0  0  0  0  0  0  0  0  0  0  0
   15.3584    3.0723   14.3822 N   0  0  0  0  0  0  0  0  0  0  0  0
   16.0706    3.8721   13.3465 C   0  0  0  0  0  0  0  0  0  0  0  0
   14.8941    3.4346   15.6861 C   0  0  0  0  0  0  0  0  0  0  0  0
   15.0398    4.4524   16.3140 O   0  0  0  0  0  0  0  0  0  0  0  0
   13.9893    2.3092   16.2536 C   0  0  0  0  0  0  0  0  0  0  0  0
   14.4253    0.9832   15.9788 O   0  0  0  0  0  0  0  0  0  0  0  0
   13.5250   -0.0440   16.4543 C   0  0  0  0  0  0  0  0  0  0  0  0
   12.2919   -0.0127   15.5228 C   0  0  0  0  0  0  0  0  0  0  0  0
   11.7590   -1.3701   15.1392 C   0  0  0  0  0  0  0  0  0  0  0  0
   11.2726   -1.9604   16.2648 F   0  0  0  0  0  0  0  0  0  0  0  0
   12.8242   -2.2728   14.5441 C   0  0  0  0  0  0  0  0  0  0  0  0
   14.2531   -1.9963   15.0508 C   0  0  0  0  0  0  0  0  0  0  0  0
   14.2826   -1.4337   16.4787 C   0  0  0  0  0  0  0  0  0  0  0  0
   15.6647   -1.2744   16.9732 N   0  0  0  0  0  0  0  0  0  0  0  0
   15.7593   -2.0439   18.2096 C   0  0  0  0  0  0  0  0  0  0  0  0
   16.7902   -1.2767   19.4797 S   0  0  0  0  0  0  0  0  0  0  0  0
   16.3468    0.3945   19.4235 C   0  0  0  0  0  0  0  0  0  0  0  0
   17.0110    1.2445   18.6134 C   0  0  0  0  0  0  0  0  0  0  0  0
   16.6924    2.6618   18.6371 C   0  0  0  0  0  0  0  0  0  0  0  0
   15.7618    3.1602   19.4714 C   0  0  0  0  0  0  0  0  0  0  0  0
   15.0678    2.2825   20.3438 C   0  0  0  0  0  0  0  0  0  0  0  0
   14.1483    2.4922   21.2599 N   0  0  0  0  0  0  0  0  0  0  0  0
   13.8371    1.2792   21.8249 N   0  0  0  0  0  0  0  0  0  0  0  0
   14.5694    0.3603   21.2337 C   0  0  0  0  0  0  0  0  0  0  0  0
   15.3773    0.9276   20.2848 N   0  0  0  0  0  0  0  0  0  0  0  0
   14.3818   -2.2756   18.6159 N   0  0  0  0  0  0  0  0  0  0  0  0
   14.2334   -3.4954   19.4133 C   0  0  0  0  0  0  0  0  0  0  0  0
   13.6944   -2.4447   17.3594 N   0  0  0  0  0  0  0  0  0  0  0  0
   16.6151    1.6196   15.2421 H   0  0  0  0  0  0  0  0  0  0  0  0
   17.0000    1.8423   13.5767 H   0  0  0  0  0  0  0  0  0  0  0  0
   17.5041    3.0420   14.8878 H   0  0  0  0  0  0  0  0  0  0  0  0
   16.3372    3.3196   12.4340 H   0  0  0  0  0  0  0  0  0  0  0  0
   15.3023    4.5823   13.0070 H   0  0  0  0  0  0  0  0  0  0  0  0
   16.8574    4.5380   13.7321 H   0  0  0  0  0  0  0  0  0  0  0  0
   13.9275    2.4414   17.3378 H   0  0  0  0  0  0  0  0  0  0  0  0
   12.9932    2.4836   15.8323 H   0  0  0  0  0  0  0  0  0  0  0  0
   13.2395    0.2121   17.4814 H   0  0  0  0  0  0  0  0  0  0  0  0
   11.4970    0.5580   16.0167 H   0  0  0  0  0  0  0  0  0  0  0  0
   12.5293    0.5310   14.5987 H   0  0  0  0  0  0  0  0  0  0  0  0
   10.9152   -1.2699   14.4562 H   0  0  0  0  0  0  0  0  0  0  0  0
   12.5412   -3.3004   14.7904 H   0  0  0  0  0  0  0  0  0  0  0  0
   12.8242   -2.1830   13.4516 H   0  0  0  0  0  0  0  0  0  0  0  0
   14.8529   -2.9116   14.9821 H   0  0  0  0  0  0  0  0  0  0  0  0
   14.7315   -1.2806   14.3674 H   0  0  0  0  0  0  0  0  0  0  0  0
   16.3114   -1.6799   16.3077 H   0  0  0  0  0  0  0  0  0  0  0  0
   16.2432   -2.9989   17.9605 H   0  0  0  0  0  0  0  0  0  0  0  0
   17.7931    0.9128   17.9384 H   0  0  0  0  0  0  0  0  0  0  0  0
   17.2249    3.3188   17.9555 H   0  0  0  0  0  0  0  0  0  0  0  0
   15.5155    4.2165   19.4841 H   0  0  0  0  0  0  0  0  0  0  0  0
   14.5452   -0.6983   21.4495 H   0  0  0  0  0  0  0  0  0  0  0  0
   14.5910   -4.3899   18.8891 H   0  0  0  0  0  0  0  0  0  0  0  0
   13.1833   -3.6562   19.6750 H   0  0  0  0  0  0  0  0  0  0  0  0
   14.7778   -3.4107   20.3598 H   0  0  0  0  0  0  0  0  0  0  0  0
   12.6781   -2.3301   17.4321 H   0  0  0  0  0  0  0  0  0  0  0  0
  1  2  1  0
  2  3  1  0
  2  4  1  0
  4  5  2  0
  4  6  1  0
  6  7  1  0
  7  8  1  0
  8  9  1  0
  9 10  1  0
 10 11  1  0
 10 12  1  0
 12 13  1  0
 13 14  1  0
 14 15  1  0
 15 16  1  0
 16 17  1  0
 17 18  1  0
 18 19  2  0
 19 20  1  0
 20 21  2  0
 21 22  1  0
 22 23  2  0
 23 24  1  0
 24 25  2  0
 25 26  1  0
 16 27  1  0
 27 28  1  0
 27 29  1  0
 14  8  1  0
 26 18  1  0
 29 14  1  0
 26 22  1  0
  1 30  1  0
  1 31  1  0
  1 32  1  0
  3 33  1  0
  3 34  1  0
  3 35  1  0
  6 36  1  0
  6 37  1  0
  8 38  1  0
  9 39  1  0
  9 40  1  0
 10 41  1  0
 12 42  1  0
 12 43  1  0
 13 44  1  0
 13 45  1  0
 15 46  1  0
 16 47  1  0
 19 48  1  0
 20 49  1  0
 21 50  1  0
 25 51  1  0
 28 52  1  0
 28 53  1  0
 28 54  1  0
 29 55  1  0
M  END
>  <Energy>  (144) 
132.42264219669221

>  <compound_id>  (144) 
1491

>  <target_id>  (144) 
1

>  <reference_id>  (144) 
117

>  <inspiration_ids>  (144) 
[6, 117]

>  <energy_score>  (144) 
-46.96577193249243

>  <distance_score>  (144) 
2.8618074831548705

>  <path>  (144) 
/opt/xchem-fragalysis-2/maxwin/BulkDock/SCRATCH/505732/C1491-P117/C1491-P117.minimised.mol

>  <scratch_subdir>  (144) 
/opt/xchem-fragalysis-2/maxwin/BulkDock/SCRATCH/505732/C1491-P117

>  <fragmenstein_runtime>  (144) 
9.381958484649658

>  <fragmenstein_outcome>  (144) 
too moved

>  <fragmenstein_mode>  (144) 
expansion

>  <fragmenstein_error>  (144) 


$$$$
C1492-P6
     RDKit          3D

 48 49  0  0  0  0  0  0  0  0999 V2000
   14.6525   -1.2578   17.6435 C   0  0  0  0  0  0  0  0  0  0  0  0
   13.4636   -1.1351   16.7383 C   0  0  0  0  0  0  0  0  0  0  0  0
   12.7309   -2.2677   16.3688 C   0  0  0  0  0  0  0  0  0  0  0  0
   11.6817   -2.1464   15.4688 C   0  0  0  0  0  0  0  0  0  0  0  0
   10.9812   -3.2320   15.1196 F   0  0  0  0  0  0  0  0  0  0  0  0
   11.3501   -0.9152   14.9184 C   0  0  0  0  0  0  0  0  0  0  0  0
   12.0517    0.2417   15.2852 C   0  0  0  0  0  0  0  0  0  0  0  0
   11.9376    1.5558   14.5020 N   0  0  0  0  0  0  0  0  0  0  0  0
   10.9141    1.8720   15.6455 C   0  0  0  0  0  0  0  0  0  0  0  0
   10.2278    3.2233   15.2579 C   0  0  0  0  0  0  0  0  0  0  0  0
   10.1148    3.5539   14.1057 O   0  0  0  0  0  0  0  0  0  0  0  0
    9.7369    3.8371   16.4528 N   0  0  0  0  0  0  0  0  0  0  0  0
    8.8405    5.0132   16.6455 C   0  0  0  0  0  0  0  0  0  0  0  0
   10.7589    4.8033   16.9994 C   0  0  0  0  0  0  0  0  0  0  0  0
   11.7351    1.2951   13.1179 C   0  0  0  0  0  0  0  0  0  0  0  0
   10.7137    1.1628   12.4842 O   0  0  0  0  0  0  0  0  0  0  0  0
   13.0460    1.0751   12.4053 C   0  0  0  0  0  0  0  0  0  0  0  0
   14.3758    2.1245   12.8765 S   0  0  0  0  0  0  0  0  0  0  0  0
   14.9392    1.6395   14.1248 O   0  0  0  0  0  0  0  0  0  0  0  0
   15.2418    2.2724   11.7190 O   0  0  0  0  0  0  0  0  0  0  0  0
   13.7126    3.7413   13.1829 C   0  0  0  0  0  0  0  0  0  0  0  0
   13.9813    4.3791   14.3983 C   0  0  0  0  0  0  0  0  0  0  0  0
   13.4989    5.6692   14.6136 C   0  0  0  0  0  0  0  0  0  0  0  0
   12.7460    6.3075   13.6264 C   0  0  0  0  0  0  0  0  0  0  0  0
   12.4839    5.6652   12.4145 C   0  0  0  0  0  0  0  0  0  0  0  0
   12.9745    4.3807   12.1831 C   0  0  0  0  0  0  0  0  0  0  0  0
   13.1293    0.1098   16.1826 C   0  0  0  0  0  0  0  0  0  0  0  0
   14.5479   -2.1180   18.3133 H   0  0  0  0  0  0  0  0  0  0  0  0
   15.5640   -1.3816   17.0507 H   0  0  0  0  0  0  0  0  0  0  0  0
   14.7541   -0.3673   18.2728 H   0  0  0  0  0  0  0  0  0  0  0  0
   12.9753   -3.2512   16.7629 H   0  0  0  0  0  0  0  0  0  0  0  0
   10.5411   -0.8673   14.2032 H   0  0  0  0  0  0  0  0  0  0  0  0
   10.0597    1.1770   15.6940 H   0  0  0  0  0  0  0  0  0  0  0  0
   11.4296    2.0368   16.6003 H   0  0  0  0  0  0  0  0  0  0  0  0
    9.0416    5.8654   15.9787 H   0  0  0  0  0  0  0  0  0  0  0  0
    7.8685    4.6481   16.2819 H   0  0  0  0  0  0  0  0  0  0  0  0
    8.6440    5.2812   17.6931 H   0  0  0  0  0  0  0  0  0  0  0  0
   11.6985    4.2364   17.0691 H   0  0  0  0  0  0  0  0  0  0  0  0
   10.5826    5.1365   18.0324 H   0  0  0  0  0  0  0  0  0  0  0  0
   11.0090    5.6246   16.3107 H   0  0  0  0  0  0  0  0  0  0  0  0
   13.3703    0.0387   12.5352 H   0  0  0  0  0  0  0  0  0  0  0  0
   12.8815    1.2539   11.3373 H   0  0  0  0  0  0  0  0  0  0  0  0
   14.5806    3.8931   15.1646 H   0  0  0  0  0  0  0  0  0  0  0  0
   13.7174    6.1828   15.5465 H   0  0  0  0  0  0  0  0  0  0  0  0
   12.3706    7.3141   13.7949 H   0  0  0  0  0  0  0  0  0  0  0  0
   11.9050    6.1728   11.6465 H   0  0  0  0  0  0  0  0  0  0  0  0
   12.7902    3.9032   11.2243 H   0  0  0  0  0  0  0  0  0  0  0  0
   13.7530    0.9760   16.4041 H   0  0  0  0  0  0  0  0  0  0  0  0
  1  2  1  0
  2  3  2  0
  3  4  1  0
  4  5  1  0
  4  6  2  0
  6  7  1  0
  7  8  1  0
  8  9  1  0
  9 10  1  0
 10 11  2  0
 10 12  1  0
 12 13  1  0
 12 14  1  0
  8 15  1  0
 15 16  2  0
 15 17  1  0
 17 18  1  0
 18 19  2  0
 18 20  2  0
 18 21  1  0
 21 22  2  0
 22 23  1  0
 23 24  2  0
 24 25  1  0
 25 26  2  0
  7 27  2  0
 27  2  1  0
 26 21  1  0
  1 28  1  0
  1 29  1  0
  1 30  1  0
  3 31  1  0
  6 32  1  0
  9 33  1  0
  9 34  1  0
 13 35  1  0
 13 36  1  0
 13 37  1  0
 14 38  1  0
 14 39  1  0
 14 40  1  0
 17 41  1  0
 17 42  1  0
 22 43  1  0
 23 44  1  0
 24 45  1  0
 25 46  1  0
 26 47  1  0
 27 48  1  0
M  END
>  <Energy>  (145) 
180.3540757231757

>  <compound_id>  (145) 
1492

>  <target_id>  (145) 
1

>  <reference_id>  (145) 
6

>  <inspiration_ids>  (145) 
[6, 118]

>  <energy_score>  (145) 
89.57527236829179

>  <distance_score>  (145) 
2.3166563738765786

>  <path>  (145) 
/opt/xchem-fragalysis-2/maxwin/BulkDock/SCRATCH/505732/C1492-P6/C1492-P6.minimised.mol

>  <scratch_subdir>  (145) 
/opt/xchem-fragalysis-2/maxwin/BulkDock/SCRATCH/505732/C1492-P6

>  <fragmenstein_runtime>  (145) 
5.353099822998047

>  <fragmenstein_outcome>  (145) 
too moved

>  <fragmenstein_mode>  (145) 
expansion

>  <fragmenstein_error>  (145) 


$$$$
C1492-P118
     RDKit          3D

 48 49  0  0  0  0  0  0  0  0999 V2000
   14.7138   -1.8540   14.0813 C   0  0  0  0  0  0  0  0  0  0  0  0
   13.5078   -1.0400   14.4391 C   0  0  0  0  0  0  0  0  0  0  0  0
   12.3011   -1.6557   14.7828 C   0  0  0  0  0  0  0  0  0  0  0  0
   11.2234   -0.8783   15.1833 C   0  0  0  0  0  0  0  0  0  0  0  0
   10.0906   -1.4731   15.5823 F   0  0  0  0  0  0  0  0  0  0  0  0
   11.3177    0.5092   15.2396 C   0  0  0  0  0  0  0  0  0  0  0  0
   12.5054    1.1562   14.8428 C   0  0  0  0  0  0  0  0  0  0  0  0
   12.6674    2.6536   15.1433 N   0  0  0  0  0  0  0  0  0  0  0  0
   11.9427    2.7690   13.7554 C   0  0  0  0  0  0  0  0  0  0  0  0
   10.4797    3.2742   13.8075 C   0  0  0  0  0  0  0  0  0  0  0  0
    9.8202    3.2334   12.7980 O   0  0  0  0  0  0  0  0  0  0  0  0
   10.1405    3.7247   15.1213 N   0  0  0  0  0  0  0  0  0  0  0  0
    8.8347    4.1832   15.6908 C   0  0  0  0  0  0  0  0  0  0  0  0
   10.4692    5.1890   15.2703 C   0  0  0  0  0  0  0  0  0  0  0  0
   14.0154    2.9459   15.5188 C   0  0  0  0  0  0  0  0  0  0  0  0
   14.9594    3.2700   14.8496 O   0  0  0  0  0  0  0  0  0  0  0  0
   14.1143    2.8158   17.0144 C   0  0  0  0  0  0  0  0  0  0  0  0
   15.6340    2.0082   17.4337 S   0  0  0  0  0  0  0  0  0  0  0  0
   15.7646    0.7780   16.6758 O   0  0  0  0  0  0  0  0  0  0  0  0
   16.7070    2.9820   17.4922 O   0  0  0  0  0  0  0  0  0  0  0  0
   15.3291    1.5206   19.1191 C   0  0  0  0  0  0  0  0  0  0  0  0
   15.1311    0.1728   19.4256 C   0  0  0  0  0  0  0  0  0  0  0  0
   14.8801   -0.1955   20.7473 C   0  0  0  0  0  0  0  0  0  0  0  0
   14.8318    0.7764   21.7484 C   0  0  0  0  0  0  0  0  0  0  0  0
   15.0508    2.1194   21.4373 C   0  0  0  0  0  0  0  0  0  0  0  0
   15.3069    2.4971   20.1197 C   0  0  0  0  0  0  0  0  0  0  0  0
   13.6023    0.3574   14.4738 C   0  0  0  0  0  0  0  0  0  0  0  0
   15.5510   -1.2218   13.7664 H   0  0  0  0  0  0  0  0  0  0  0  0
   15.0448   -2.4377   14.9456 H   0  0  0  0  0  0  0  0  0  0  0  0
   14.4812   -2.5214   13.2460 H   0  0  0  0  0  0  0  0  0  0  0  0
   12.1953   -2.7363   14.7626 H   0  0  0  0  0  0  0  0  0  0  0  0
   10.4737    1.0694   15.6290 H   0  0  0  0  0  0  0  0  0  0  0  0
   12.0766    1.9974   12.9743 H   0  0  0  0  0  0  0  0  0  0  0  0
   12.4821    3.6208   13.3071 H   0  0  0  0  0  0  0  0  0  0  0  0
    8.2366    4.8124   15.0149 H   0  0  0  0  0  0  0  0  0  0  0  0
    8.2468    3.2563   15.7506 H   0  0  0  0  0  0  0  0  0  0  0  0
    8.8746    4.5289   16.7337 H   0  0  0  0  0  0  0  0  0  0  0  0
   10.5081    5.5465   16.3101 H   0  0  0  0  0  0  0  0  0  0  0  0
   11.5094    5.2962   14.9286 H   0  0  0  0  0  0  0  0  0  0  0  0
    9.9139    5.8503   14.5864 H   0  0  0  0  0  0  0  0  0  0  0  0
   14.0979    3.8082   17.4717 H   0  0  0  0  0  0  0  0  0  0  0  0
   13.2961    2.2126   17.4190 H   0  0  0  0  0  0  0  0  0  0  0  0
   15.1744   -0.5948   18.6560 H   0  0  0  0  0  0  0  0  0  0  0  0
   14.7168   -1.2412   21.0026 H   0  0  0  0  0  0  0  0  0  0  0  0
   14.6335    0.4797   22.7763 H   0  0  0  0  0  0  0  0  0  0  0  0
   15.0337    2.8679   22.2260 H   0  0  0  0  0  0  0  0  0  0  0  0
   15.5018    3.5418   19.8873 H   0  0  0  0  0  0  0  0  0  0  0  0
   14.5575    0.8130   14.2113 H   0  0  0  0  0  0  0  0  0  0  0  0
  1  2  1  0
  2  3  2  0
  3  4  1  0
  4  5  1  0
  4  6  2  0
  6  7  1  0
  7  8  1  0
  8  9  1  0
  9 10  1  0
 10 11  2  0
 10 12  1  0
 12 13  1  0
 12 14  1  0
  8 15  1  0
 15 16  2  0
 15 17  1  0
 17 18  1  0
 18 19  2  0
 18 20  2  0
 18 21  1  0
 21 22  2  0
 22 23  1  0
 23 24  2  0
 24 25  1  0
 25 26  2  0
  7 27  2  0
 27  2  1  0
 26 21  1  0
  1 28  1  0
  1 29  1  0
  1 30  1  0
  3 31  1  0
  6 32  1  0
  9 33  1  0
  9 34  1  0
 13 35  1  0
 13 36  1  0
 13 37  1  0
 14 38  1  0
 14 39  1  0
 14 40  1  0
 17 41  1  0
 17 42  1  0
 22 43  1  0
 23 44  1  0
 24 45  1  0
 25 46  1  0
 26 47  1  0
 27 48  1  0
M  END
>  <Energy>  (146) 
181.60441504840654

>  <compound_id>  (146) 
1492

>  <target_id>  (146) 
1

>  <reference_id>  (146) 
118

>  <inspiration_ids>  (146) 
[6, 118]

>  <energy_score>  (146) 
90.82561169352476

>  <distance_score>  (146) 
3.7873332791791996

>  <path>  (146) 
/opt/xchem-fragalysis-2/maxwin/BulkDock/SCRATCH/505732/C1492-P118/C1492-P118.minimised.mol

>  <scratch_subdir>  (146) 
/opt/xchem-fragalysis-2/maxwin/BulkDock/SCRATCH/505732/C1492-P118

>  <fragmenstein_runtime>  (146) 
7.6774351596832275

>  <fragmenstein_outcome>  (146) 
too moved

>  <fragmenstein_mode>  (146) 
expansion

>  <fragmenstein_error>  (146) 


$$$$
C1493-P6
     RDKit          3D

 48 49  0  0  0  0  0  0  0  0999 V2000
   11.1196    0.5760   13.8676 C   0  0  0  0  0  0  0  0  0  0  0  0
   10.7869    0.1825   15.1879 O   0  0  0  0  0  0  0  0  0  0  0  0
   10.1448   -1.0923   15.2431 C   0  0  0  0  0  0  0  0  0  0  0  0
   11.0027   -2.3169   14.8957 C   0  0  0  0  0  0  0  0  0  0  0  0
   12.3032   -2.4256   15.6153 C   0  0  0  0  0  0  0  0  0  0  0  0
   13.0327   -3.4892   16.1169 C   0  0  0  0  0  0  0  0  0  0  0  0
   14.3790   -3.0961   15.8953 C   0  0  0  0  0  0  0  0  0  0  0  0
   15.9476   -3.9058   16.4226 Br  0  0  0  0  0  0  0  0  0  0  0  0
   14.3864   -1.8948   15.2326 C   0  0  0  0  0  0  0  0  0  0  0  0
   13.2060   -1.3856   15.6975 N   0  0  0  0  0  0  0  0  0  0  0  0
   13.2950   -0.4809   16.8410 C   0  0  0  0  0  0  0  0  0  0  0  0
   14.2699   -0.9228   17.9627 C   0  0  0  0  0  0  0  0  0  0  0  0
   14.6651    0.2330   18.8807 C   0  0  0  0  0  0  0  0  0  0  0  0
   15.6879    0.9772   18.1970 O   0  0  0  0  0  0  0  0  0  0  0  0
   16.9868    0.7017   18.5276 C   0  0  0  0  0  0  0  0  0  0  0  0
   17.3447    0.1286   19.5484 O   0  0  0  0  0  0  0  0  0  0  0  0
   17.9525    1.1735   17.4369 C   0  0  0  0  0  0  0  0  0  0  0  0
   17.2172    1.5391   16.2514 N   0  0  0  0  0  0  0  0  0  0  0  0
   16.9204    2.9148   15.6494 C   0  0  0  0  0  0  0  0  0  0  0  0
   17.2852    3.9723   15.9685 O   0  0  0  0  0  0  0  0  0  0  0  0
   15.9384    2.7479   14.5634 C   0  0  0  0  0  0  0  0  0  0  0  0
   15.2325    3.7744   13.8890 C   0  0  0  0  0  0  0  0  0  0  0  0
   14.2633    3.1081   13.1908 C   0  0  0  0  0  0  0  0  0  0  0  0
   13.0883    3.5536   12.4415 C   0  0  0  0  0  0  0  0  0  0  0  0
   14.4517    1.7698   13.3103 O   0  0  0  0  0  0  0  0  0  0  0  0
   15.4963    1.5317   14.1818 N   0  0  0  0  0  0  0  0  0  0  0  0
   10.2216    0.6403   13.2511 H   0  0  0  0  0  0  0  0  0  0  0  0
   11.8488   -0.0998   13.4152 H   0  0  0  0  0  0  0  0  0  0  0  0
   11.5635    1.5715   13.9218 H   0  0  0  0  0  0  0  0  0  0  0  0
    9.2174   -1.0527   14.6671 H   0  0  0  0  0  0  0  0  0  0  0  0
    9.8092   -1.1948   16.2620 H   0  0  0  0  0  0  0  0  0  0  0  0
   10.4213   -3.2299   15.0519 H   0  0  0  0  0  0  0  0  0  0  0  0
   11.2693   -2.2988   13.8343 H   0  0  0  0  0  0  0  0  0  0  0  0
   12.6737   -4.4668   16.4118 H   0  0  0  0  0  0  0  0  0  0  0  0
   15.1976   -1.2610   14.9001 H   0  0  0  0  0  0  0  0  0  0  0  0
   13.5976    0.4868   16.4230 H   0  0  0  0  0  0  0  0  0  0  0  0
   12.2877   -0.3675   17.2241 H   0  0  0  0  0  0  0  0  0  0  0  0
   15.2105   -1.2841   17.5418 H   0  0  0  0  0  0  0  0  0  0  0  0
   13.8509   -1.7529   18.5359 H   0  0  0  0  0  0  0  0  0  0  0  0
   15.0153   -0.1412   19.8483 H   0  0  0  0  0  0  0  0  0  0  0  0
   13.8307    0.9118   19.0650 H   0  0  0  0  0  0  0  0  0  0  0  0
   18.5067    2.0429   17.7972 H   0  0  0  0  0  0  0  0  0  0  0  0
   18.6200    0.3507   17.1711 H   0  0  0  0  0  0  0  0  0  0  0  0
   16.6645    0.8320   15.7705 H   0  0  0  0  0  0  0  0  0  0  0  0
   15.3437    4.8413   14.0179 H   0  0  0  0  0  0  0  0  0  0  0  0
   13.3379    4.4036   11.7985 H   0  0  0  0  0  0  0  0  0  0  0  0
   12.6947    2.7571   11.8018 H   0  0  0  0  0  0  0  0  0  0  0  0
   12.2923    3.8669   13.1240 H   0  0  0  0  0  0  0  0  0  0  0  0
  1  2  1  0
  2  3  1  0
  3  4  1  0
  4  5  1  0
  5  6  2  0
  6  7  1  0
  7  8  1  0
  7  9  2  0
  9 10  1  0
 10 11  1  0
 11 12  1  0
 12 13  1  0
 13 14  1  0
 14 15  1  0
 15 16  2  0
 15 17  1  0
 17 18  1  0
 18 19  1  0
 19 20  2  0
 19 21  1  0
 21 22  1  0
 22 23  2  0
 23 24  1  0
 23 25  1  0
 25 26  1  0
 10  5  1  0
 26 21  2  0
  1 27  1  0
  1 28  1  0
  1 29  1  0
  3 30  1  0
  3 31  1  0
  4 32  1  0
  4 33  1  0
  6 34  1  0
  9 35  1  0
 11 36  1  0
 11 37  1  0
 12 38  1  0
 12 39  1  0
 13 40  1  0
 13 41  1  0
 17 42  1  0
 17 43  1  0
 18 44  1  0
 22 45  1  0
 24 46  1  0
 24 47  1  0
 24 48  1  0
M  END
>  <Energy>  (147) 
104.75605748661755

>  <compound_id>  (147) 
1493

>  <target_id>  (147) 
1

>  <reference_id>  (147) 
6

>  <inspiration_ids>  (147) 
[6, 120]

>  <energy_score>  (147) 
17.3397054691456

>  <distance_score>  (147) 
2.9835073771518736

>  <path>  (147) 
/opt/xchem-fragalysis-2/maxwin/BulkDock/SCRATCH/505732/C1493-P6/C1493-P6.minimised.mol

>  <scratch_subdir>  (147) 
/opt/xchem-fragalysis-2/maxwin/BulkDock/SCRATCH/505732/C1493-P6

>  <fragmenstein_runtime>  (147) 
5.752935171127319

>  <fragmenstein_outcome>  (147) 
too moved

>  <fragmenstein_mode>  (147) 
expansion

>  <fragmenstein_error>  (147) 


$$$$
C1493-P120
     RDKit          3D

 48 49  0  0  0  0  0  0  0  0999 V2000
   12.1111   -5.0762   11.7104 C   0  0  0  0  0  0  0  0  0  0  0  0
   11.4231   -4.4145   12.7972 O   0  0  0  0  0  0  0  0  0  0  0  0
   11.8457   -3.1865   13.3940 C   0  0  0  0  0  0  0  0  0  0  0  0
   11.2404   -3.0806   14.7963 C   0  0  0  0  0  0  0  0  0  0  0  0
   11.9479   -2.0456   15.5938 C   0  0  0  0  0  0  0  0  0  0  0  0
   11.8774   -0.6719   15.4359 C   0  0  0  0  0  0  0  0  0  0  0  0
   12.8133   -0.1129   16.3104 C   0  0  0  0  0  0  0  0  0  0  0  0
   13.2263    1.6949   16.4607 Br  0  0  0  0  0  0  0  0  0  0  0  0
   13.3798   -1.1145   17.0406 C   0  0  0  0  0  0  0  0  0  0  0  0
   12.8781   -2.3039   16.5738 N   0  0  0  0  0  0  0  0  0  0  0  0
   13.5148   -3.5683   16.9162 C   0  0  0  0  0  0  0  0  0  0  0  0
   14.9473   -3.5235   16.3919 C   0  0  0  0  0  0  0  0  0  0  0  0
   16.0268   -3.3696   17.4634 C   0  0  0  0  0  0  0  0  0  0  0  0
   17.2227   -2.9409   16.7853 O   0  0  0  0  0  0  0  0  0  0  0  0
   17.3707   -1.5842   16.7159 C   0  0  0  0  0  0  0  0  0  0  0  0
   16.8553   -0.7885   17.4912 O   0  0  0  0  0  0  0  0  0  0  0  0
   18.1733   -1.1978   15.4814 C   0  0  0  0  0  0  0  0  0  0  0  0
   17.3322   -0.3086   14.7167 N   0  0  0  0  0  0  0  0  0  0  0  0
   17.4114    1.2107   14.5142 C   0  0  0  0  0  0  0  0  0  0  0  0
   18.2116    1.9787   14.8683 O   0  0  0  0  0  0  0  0  0  0  0  0
   16.1814    1.6586   13.8322 C   0  0  0  0  0  0  0  0  0  0  0  0
   15.7115    2.9903   13.6829 C   0  0  0  0  0  0  0  0  0  0  0  0
   14.4297    2.8450   13.2234 C   0  0  0  0  0  0  0  0  0  0  0  0
   13.3043    3.7704   13.0453 C   0  0  0  0  0  0  0  0  0  0  0  0
   14.1913    1.5347   12.9610 O   0  0  0  0  0  0  0  0  0  0  0  0
   15.2808    0.7791   13.3497 N   0  0  0  0  0  0  0  0  0  0  0  0
   13.1398   -4.7478   11.5769 H   0  0  0  0  0  0  0  0  0  0  0  0
   12.0604   -6.1506   11.7757 H   0  0  0  0  0  0  0  0  0  0  0  0
   11.5955   -4.9734   10.7715 H   0  0  0  0  0  0  0  0  0  0  0  0
   11.5002   -2.3302   12.8310 H   0  0  0  0  0  0  0  0  0  0  0  0
   12.9252   -3.0485   13.3833 H   0  0  0  0  0  0  0  0  0  0  0  0
   10.1805   -2.8145   14.7302 H   0  0  0  0  0  0  0  0  0  0  0  0
   11.2500   -4.0414   15.3081 H   0  0  0  0  0  0  0  0  0  0  0  0
   11.2550   -0.1566   14.7151 H   0  0  0  0  0  0  0  0  0  0  0  0
   14.1385   -1.0729   17.8115 H   0  0  0  0  0  0  0  0  0  0  0  0
   13.4576   -3.6845   18.0035 H   0  0  0  0  0  0  0  0  0  0  0  0
   12.9528   -4.3797   16.4542 H   0  0  0  0  0  0  0  0  0  0  0  0
   15.1783   -4.4286   15.8304 H   0  0  0  0  0  0  0  0  0  0  0  0
   15.0685   -2.7386   15.6315 H   0  0  0  0  0  0  0  0  0  0  0  0
   15.7392   -2.6827   18.2651 H   0  0  0  0  0  0  0  0  0  0  0  0
   16.2403   -4.3362   17.9311 H   0  0  0  0  0  0  0  0  0  0  0  0
   18.3956   -2.0715   14.8641 H   0  0  0  0  0  0  0  0  0  0  0  0
   19.0940   -0.6929   15.7815 H   0  0  0  0  0  0  0  0  0  0  0  0
   16.4498   -0.6556   14.3432 H   0  0  0  0  0  0  0  0  0  0  0  0
   16.1999    3.8967   14.0096 H   0  0  0  0  0  0  0  0  0  0  0  0
   12.3792    3.3439   13.4455 H   0  0  0  0  0  0  0  0  0  0  0  0
   13.4884    4.7186   13.5598 H   0  0  0  0  0  0  0  0  0  0  0  0
   13.1508    3.9832   11.9830 H   0  0  0  0  0  0  0  0  0  0  0  0
  1  2  1  0
  2  3  1  0
  3  4  1  0
  4  5  1  0
  5  6  2  0
  6  7  1  0
  7  8  1  0
  7  9  2  0
  9 10  1  0
 10 11  1  0
 11 12  1  0
 12 13  1  0
 13 14  1  0
 14 15  1  0
 15 16  2  0
 15 17  1  0
 17 18  1  0
 18 19  1  0
 19 20  2  0
 19 21  1  0
 21 22  1  0
 22 23  2  0
 23 24  1  0
 23 25  1  0
 25 26  1  0
 10  5  1  0
 26 21  2  0
  1 27  1  0
  1 28  1  0
  1 29  1  0
  3 30  1  0
  3 31  1  0
  4 32  1  0
  4 33  1  0
  6 34  1  0
  9 35  1  0
 11 36  1  0
 11 37  1  0
 12 38  1  0
 12 39  1  0
 13 40  1  0
 13 41  1  0
 17 42  1  0
 17 43  1  0
 18 44  1  0
 22 45  1  0
 24 46  1  0
 24 47  1  0
 24 48  1  0
M  END
>  <Energy>  (148) 
80.126115186616985

>  <compound_id>  (148) 
1493

>  <target_id>  (148) 
1

>  <reference_id>  (148) 
120

>  <inspiration_ids>  (148) 
[6, 120]

>  <energy_score>  (148) 
-7.29023683085876

>  <distance_score>  (148) 
2.845652798916781

>  <path>  (148) 
/opt/xchem-fragalysis-2/maxwin/BulkDock/SCRATCH/505732/C1493-P120/C1493-P120.minimised.mol

>  <scratch_subdir>  (148) 
/opt/xchem-fragalysis-2/maxwin/BulkDock/SCRATCH/505732/C1493-P120

>  <fragmenstein_runtime>  (148) 
4.204712629318237

>  <fragmenstein_outcome>  (148) 
too moved

>  <fragmenstein_mode>  (148) 
expansion

>  <fragmenstein_error>  (148) 


$$$$
C1495-P6
     RDKit          3D

 43 45  0  0  0  0  0  0  0  0999 V2000
   12.4742   -4.9875   16.7774 O   0  0  0  0  0  0  0  0  0  0  0  0
   12.1173   -3.9807   16.2197 C   0  0  0  0  0  0  0  0  0  0  0  0
   11.0663   -3.8314   15.3553 N   0  0  0  0  0  0  0  0  0  0  0  0
   10.9408   -2.5069   14.8400 C   0  0  0  0  0  0  0  0  0  0  0  0
   11.9304   -1.7845   15.6737 C   0  0  0  0  0  0  0  0  0  0  0  0
   12.1623   -0.4369   15.7497 C   0  0  0  0  0  0  0  0  0  0  0  0
   13.1515   -0.0115   16.6339 C   0  0  0  0  0  0  0  0  0  0  0  0
   13.4892    1.2803   16.8920 O   0  0  0  0  0  0  0  0  0  0  0  0
   12.8507    2.4884   16.0276 S   0  0  0  0  0  0  0  0  0  0  0  0
   13.2500    2.3201   14.6459 O   0  0  0  0  0  0  0  0  0  0  0  0
   11.4579    2.6571   16.3972 O   0  0  0  0  0  0  0  0  0  0  0  0
   13.5875    3.8073   16.5263 F   0  0  0  0  0  0  0  0  0  0  0  0
   13.9114   -0.9120   17.3737 C   0  0  0  0  0  0  0  0  0  0  0  0
   13.7300   -2.2788   17.2467 C   0  0  0  0  0  0  0  0  0  0  0  0
   14.7953   -3.1576   17.8080 C   0  0  0  0  0  0  0  0  0  0  0  0
   15.7807   -3.2771   16.7441 N   0  0  0  0  0  0  0  0  0  0  0  0
   17.1368   -3.4623   17.1872 C   0  0  0  0  0  0  0  0  0  0  0  0
   17.7294   -2.3113   17.7716 O   0  0  0  0  0  0  0  0  0  0  0  0
   17.6293   -1.0659   17.0753 C   0  0  0  0  0  0  0  0  0  0  0  0
   17.7173   -1.0501   15.5485 C   0  0  0  0  0  0  0  0  0  0  0  0
   19.0377   -1.2867   14.9990 N   0  0  0  0  0  0  0  0  0  0  0  0
   20.0629   -1.9922   15.5574 C   0  0  0  0  0  0  0  0  0  0  0  0
   21.0096   -2.0936   14.5769 C   0  0  0  0  0  0  0  0  0  0  0  0
   22.6588   -2.9612   14.6505 Br  0  0  0  0  0  0  0  0  0  0  0  0
   20.5017   -1.3992   13.4763 C   0  0  0  0  0  0  0  0  0  0  0  0
   19.2954   -0.8847   13.7324 N   0  0  0  0  0  0  0  0  0  0  0  0
   12.6921   -2.6742   16.4285 C   0  0  0  0  0  0  0  0  0  0  0  0
   10.3970   -4.5883   15.2335 H   0  0  0  0  0  0  0  0  0  0  0  0
    9.9212   -2.1485   14.9874 H   0  0  0  0  0  0  0  0  0  0  0  0
   11.2535   -2.5203   13.7953 H   0  0  0  0  0  0  0  0  0  0  0  0
   11.5629    0.2355   15.1451 H   0  0  0  0  0  0  0  0  0  0  0  0
   14.6812   -0.5291   18.0404 H   0  0  0  0  0  0  0  0  0  0  0  0
   15.2210   -2.6876   18.7043 H   0  0  0  0  0  0  0  0  0  0  0  0
   14.3945   -4.1098   18.1423 H   0  0  0  0  0  0  0  0  0  0  0  0
   15.5019   -4.0305   16.1152 H   0  0  0  0  0  0  0  0  0  0  0  0
   17.2024   -4.2808   17.9129 H   0  0  0  0  0  0  0  0  0  0  0  0
   17.7564   -3.7671   16.3371 H   0  0  0  0  0  0  0  0  0  0  0  0
   16.6859   -0.6076   17.3715 H   0  0  0  0  0  0  0  0  0  0  0  0
   18.4075   -0.4167   17.4945 H   0  0  0  0  0  0  0  0  0  0  0  0
   17.0555   -1.7775   15.0720 H   0  0  0  0  0  0  0  0  0  0  0  0
   17.4209   -0.0525   15.2009 H   0  0  0  0  0  0  0  0  0  0  0  0
   20.0302   -2.3797   16.5655 H   0  0  0  0  0  0  0  0  0  0  0  0
   20.9477   -1.2370   12.5040 H   0  0  0  0  0  0  0  0  0  0  0  0
  1  2  2  0
  2  3  1  0
  3  4  1  0
  4  5  1  0
  5  6  2  0
  6  7  1  0
  7  8  1  0
  8  9  1  0
  9 10  2  0
  9 11  2  0
  9 12  1  0
  7 13  2  0
 13 14  1  0
 14 15  1  0
 15 16  1  0
 16 17  1  0
 17 18  1  0
 18 19  1  0
 19 20  1  0
 20 21  1  0
 21 22  1  0
 22 23  2  0
 23 24  1  0
 23 25  1  0
 25 26  2  0
 14 27  2  0
 27  2  1  0
 27  5  1  0
 26 21  1  0
  3 28  1  0
  4 29  1  0
  4 30  1  0
  6 31  1  0
 13 32  1  0
 15 33  1  0
 15 34  1  0
 16 35  1  0
 17 36  1  0
 17 37  1  0
 19 38  1  0
 19 39  1  0
 20 40  1  0
 20 41  1  0
 22 42  1  0
 25 43  1  0
M  END
>  <Energy>  (149) 
-2.255298741290316

>  <compound_id>  (149) 
1495

>  <target_id>  (149) 
1

>  <reference_id>  (149) 
6

>  <inspiration_ids>  (149) 
[6, 146]

>  <energy_score>  (149) 
-39.44554214190349

>  <distance_score>  (149) 
1.7258661279652259

>  <path>  (149) 
/opt/xchem-fragalysis-2/maxwin/BulkDock/SCRATCH/505732/C1495-P6/C1495-P6.minimised.mol

>  <scratch_subdir>  (149) 
/opt/xchem-fragalysis-2/maxwin/BulkDock/SCRATCH/505732/C1495-P6

>  <fragmenstein_runtime>  (149) 
3.191910982131958

>  <fragmenstein_outcome>  (149) 
too moved

>  <fragmenstein_mode>  (149) 
expansion

>  <fragmenstein_error>  (149) 


$$$$
C1495-P146
     RDKit          3D

 43 45  0  0  0  0  0  0  0  0999 V2000
   12.4016   -4.8264   17.1359 O   0  0  0  0  0  0  0  0  0  0  0  0
   12.1660   -3.9778   16.3088 C   0  0  0  0  0  0  0  0  0  0  0  0
   11.0960   -3.8809   15.4626 N   0  0  0  0  0  0  0  0  0  0  0  0
   11.1428   -2.7810   14.5570 C   0  0  0  0  0  0  0  0  0  0  0  0
   12.3974   -2.1376   14.9953 C   0  0  0  0  0  0  0  0  0  0  0  0
   12.9416   -0.9750   14.5356 C   0  0  0  0  0  0  0  0  0  0  0  0
   14.0970   -0.5415   15.1651 C   0  0  0  0  0  0  0  0  0  0  0  0
   14.6772    0.6740   14.9683 O   0  0  0  0  0  0  0  0  0  0  0  0
   13.8989    1.8890   14.2074 S   0  0  0  0  0  0  0  0  0  0  0  0
   12.4791    1.8871   14.5069 O   0  0  0  0  0  0  0  0  0  0  0  0
   14.3567    1.9163   12.8312 O   0  0  0  0  0  0  0  0  0  0  0  0
   14.4721    3.2330   14.8441 F   0  0  0  0  0  0  0  0  0  0  0  0
   14.7576   -1.3299   16.1190 C   0  0  0  0  0  0  0  0  0  0  0  0
   14.2547   -2.5541   16.5440 C   0  0  0  0  0  0  0  0  0  0  0  0
   14.9951   -3.3977   17.5402 C   0  0  0  0  0  0  0  0  0  0  0  0
   16.4244   -3.3613   17.2440 N   0  0  0  0  0  0  0  0  0  0  0  0
   17.2040   -2.6423   18.2237 C   0  0  0  0  0  0  0  0  0  0  0  0
   18.5627   -2.7132   17.8237 O   0  0  0  0  0  0  0  0  0  0  0  0
   19.2775   -1.4761   17.8561 C   0  0  0  0  0  0  0  0  0  0  0  0
   18.9078   -0.5141   16.7262 C   0  0  0  0  0  0  0  0  0  0  0  0
   19.2683   -1.0192   15.4149 N   0  0  0  0  0  0  0  0  0  0  0  0
   18.6034   -1.9792   14.7097 C   0  0  0  0  0  0  0  0  0  0  0  0
   19.3268   -2.1545   13.5644 C   0  0  0  0  0  0  0  0  0  0  0  0
   18.9977   -3.3353   12.1601 Br  0  0  0  0  0  0  0  0  0  0  0  0
   20.3782   -1.2359   13.6316 C   0  0  0  0  0  0  0  0  0  0  0  0
   20.3343   -0.5137   14.7578 N   0  0  0  0  0  0  0  0  0  0  0  0
   13.0317   -2.8737   16.0010 C   0  0  0  0  0  0  0  0  0  0  0  0
   10.3881   -4.6080   15.4667 H   0  0  0  0  0  0  0  0  0  0  0  0
   10.2632   -2.1524   14.7088 H   0  0  0  0  0  0  0  0  0  0  0  0
   11.2142   -3.1602   13.5359 H   0  0  0  0  0  0  0  0  0  0  0  0
   12.4392   -0.4235   13.7485 H   0  0  0  0  0  0  0  0  0  0  0  0
   15.6813   -0.9445   16.5360 H   0  0  0  0  0  0  0  0  0  0  0  0
   14.7566   -3.0720   18.5598 H   0  0  0  0  0  0  0  0  0  0  0  0
   14.6905   -4.4442   17.4562 H   0  0  0  0  0  0  0  0  0  0  0  0
   16.7895   -4.3140   17.2206 H   0  0  0  0  0  0  0  0  0  0  0  0
   16.8676   -1.6062   18.3332 H   0  0  0  0  0  0  0  0  0  0  0  0
   17.1279   -3.1218   19.2060 H   0  0  0  0  0  0  0  0  0  0  0  0
   19.1199   -0.9981   18.8301 H   0  0  0  0  0  0  0  0  0  0  0  0
   20.3423   -1.7264   17.7892 H   0  0  0  0  0  0  0  0  0  0  0  0
   17.8353   -0.3080   16.6979 H   0  0  0  0  0  0  0  0  0  0  0  0
   19.4269    0.4410   16.8655 H   0  0  0  0  0  0  0  0  0  0  0  0
   17.7148   -2.4609   15.0881 H   0  0  0  0  0  0  0  0  0  0  0  0
   21.1681   -1.0476   12.9164 H   0  0  0  0  0  0  0  0  0  0  0  0
  1  2  2  0
  2  3  1  0
  3  4  1  0
  4  5  1  0
  5  6  2  0
  6  7  1  0
  7  8  1  0
  8  9  1  0
  9 10  2  0
  9 11  2  0
  9 12  1  0
  7 13  2  0
 13 14  1  0
 14 15  1  0
 15 16  1  0
 16 17  1  0
 17 18  1  0
 18 19  1  0
 19 20  1  0
 20 21  1  0
 21 22  1  0
 22 23  2  0
 23 24  1  0
 23 25  1  0
 25 26  2  0
 14 27  2  0
 27  2  1  0
 27  5  1  0
 26 21  1  0
  3 28  1  0
  4 29  1  0
  4 30  1  0
  6 31  1  0
 13 32  1  0
 15 33  1  0
 15 34  1  0
 16 35  1  0
 17 36  1  0
 17 37  1  0
 19 38  1  0
 19 39  1  0
 20 40  1  0
 20 41  1  0
 22 42  1  0
 25 43  1  0
M  END
>  <Energy>  (150) 
-5.9202859086659263

>  <compound_id>  (150) 
1495

>  <target_id>  (150) 
1

>  <reference_id>  (150) 
146

>  <inspiration_ids>  (150) 
[6, 146]

>  <energy_score>  (150) 
-43.11052930927974

>  <distance_score>  (150) 
1.8512682557145825

>  <path>  (150) 
/opt/xchem-fragalysis-2/maxwin/BulkDock/SCRATCH/505732/C1495-P146/C1495-P146.minimised.mol

>  <scratch_subdir>  (150) 
/opt/xchem-fragalysis-2/maxwin/BulkDock/SCRATCH/505732/C1495-P146

>  <fragmenstein_runtime>  (150) 
3.1601738929748535

>  <fragmenstein_outcome>  (150) 
too moved

>  <fragmenstein_mode>  (150) 
expansion

>  <fragmenstein_error>  (150) 


$$$$
C1497-P6
     RDKit          3D

 44 46  0  0  0  0  0  0  0  0999 V2000
   11.3071   -2.7723   14.3156 C   0  0  0  0  0  0  0  0  0  0  0  0
   12.5125   -2.0539   14.8040 C   0  0  0  0  0  0  0  0  0  0  0  0
   12.4471   -1.3903   16.0270 C   0  0  0  0  0  0  0  0  0  0  0  0
   13.6024   -0.8488   16.5886 C   0  0  0  0  0  0  0  0  0  0  0  0
   13.4779    0.0779   17.5767 O   0  0  0  0  0  0  0  0  0  0  0  0
   13.7269    1.6300   17.1126 S   0  0  0  0  0  0  0  0  0  0  0  0
   15.1301    1.9532   17.2635 O   0  0  0  0  0  0  0  0  0  0  0  0
   13.0029    1.8894   15.8817 O   0  0  0  0  0  0  0  0  0  0  0  0
   12.9858    2.5096   18.2120 F   0  0  0  0  0  0  0  0  0  0  0  0
   14.8569   -1.1480   16.1002 C   0  0  0  0  0  0  0  0  0  0  0  0
   14.8894   -1.7964   14.9034 C   0  0  0  0  0  0  0  0  0  0  0  0
   13.7438   -2.0748   14.1687 C   0  0  0  0  0  0  0  0  0  0  0  0
   14.1492   -2.2547   12.7253 C   0  0  0  0  0  0  0  0  0  0  0  0
   15.6170   -2.3383   12.7942 N   0  0  0  0  0  0  0  0  0  0  0  0
   16.0448   -2.1929   14.1015 C   0  0  0  0  0  0  0  0  0  0  0  0
   17.1774   -2.4622   14.6644 N   0  0  0  0  0  0  0  0  0  0  0  0
   18.1769   -2.8337   13.8221 N   0  0  0  0  0  0  0  0  0  0  0  0
   19.2381   -1.8362   13.6362 C   0  0  0  0  0  0  0  0  0  0  0  0
   19.4267   -0.9666   14.7486 O   0  0  0  0  0  0  0  0  0  0  0  0
   20.2676   -1.4348   15.7944 C   0  0  0  0  0  0  0  0  0  0  0  0
   19.6724   -2.4896   16.7270 C   0  0  0  0  0  0  0  0  0  0  0  0
   18.5951   -2.0327   17.5784 N   0  0  0  0  0  0  0  0  0  0  0  0
   17.4495   -2.7207   17.8633 C   0  0  0  0  0  0  0  0  0  0  0  0
   16.7448   -1.9200   18.7149 C   0  0  0  0  0  0  0  0  0  0  0  0
   15.0695   -2.2554   19.4483 Br  0  0  0  0  0  0  0  0  0  0  0  0
   17.5418   -0.7909   18.9203 C   0  0  0  0  0  0  0  0  0  0  0  0
   18.7296   -0.9083   18.3135 N   0  0  0  0  0  0  0  0  0  0  0  0
   10.4115   -2.1892   14.5376 H   0  0  0  0  0  0  0  0  0  0  0  0
   11.3875   -2.9835   13.2499 H   0  0  0  0  0  0  0  0  0  0  0  0
   11.2112   -3.7240   14.8453 H   0  0  0  0  0  0  0  0  0  0  0  0
   11.4850   -1.2226   16.4941 H   0  0  0  0  0  0  0  0  0  0  0  0
   15.7720   -0.7595   16.5271 H   0  0  0  0  0  0  0  0  0  0  0  0
   13.8761   -1.3609   12.1558 H   0  0  0  0  0  0  0  0  0  0  0  0
   13.7268   -3.1266   12.2354 H   0  0  0  0  0  0  0  0  0  0  0  0
   16.0159   -3.1864   12.3933 H   0  0  0  0  0  0  0  0  0  0  0  0
   18.6207   -3.6666   14.2024 H   0  0  0  0  0  0  0  0  0  0  0  0
   20.1799   -2.3177   13.3491 H   0  0  0  0  0  0  0  0  0  0  0  0
   18.9435   -1.1989   12.7958 H   0  0  0  0  0  0  0  0  0  0  0  0
   21.1931   -1.8238   15.3525 H   0  0  0  0  0  0  0  0  0  0  0  0
   20.5596   -0.5530   16.3758 H   0  0  0  0  0  0  0  0  0  0  0  0
   20.4561   -2.8358   17.4127 H   0  0  0  0  0  0  0  0  0  0  0  0
   19.3225   -3.3670   16.1802 H   0  0  0  0  0  0  0  0  0  0  0  0
   17.2298   -3.6751   17.4080 H   0  0  0  0  0  0  0  0  0  0  0  0
   17.3449    0.0869   19.5213 H   0  0  0  0  0  0  0  0  0  0  0  0
  1  2  1  0
  2  3  2  0
  3  4  1  0
  4  5  1  0
  5  6  1  0
  6  7  2  0
  6  8  2  0
  6  9  1  0
  4 10  2  0
 10 11  1  0
 11 12  2  0
 12 13  1  0
 13 14  1  0
 14 15  1  0
 15 16  2  3
 16 17  1  0
 17 18  1  0
 18 19  1  0
 19 20  1  0
 20 21  1  0
 21 22  1  0
 22 23  1  0
 23 24  2  0
 24 25  1  0
 24 26  1  0
 26 27  2  0
 12  2  1  0
 27 22  1  0
 15 11  1  0
  1 28  1  0
  1 29  1  0
  1 30  1  0
  3 31  1  0
 10 32  1  0
 13 33  1  0
 13 34  1  0
 14 35  1  0
 17 36  1  0
 18 37  1  0
 18 38  1  0
 20 39  1  0
 20 40  1  0
 21 41  1  0
 21 42  1  0
 23 43  1  0
 26 44  1  0
M  END
>  <Energy>  (151) 
61.619533058735676

>  <compound_id>  (151) 
1497

>  <target_id>  (151) 
1

>  <reference_id>  (151) 
6

>  <inspiration_ids>  (151) 
[6, 191]

>  <energy_score>  (151) 
-35.480692492661944

>  <distance_score>  (151) 
1.7728287733877177

>  <path>  (151) 
/opt/xchem-fragalysis-2/maxwin/BulkDock/SCRATCH/505732/C1497-P6/C1497-P6.minimised.mol

>  <scratch_subdir>  (151) 
/opt/xchem-fragalysis-2/maxwin/BulkDock/SCRATCH/505732/C1497-P6

>  <fragmenstein_runtime>  (151) 
17.910129070281982

>  <fragmenstein_outcome>  (151) 
too moved

>  <fragmenstein_mode>  (151) 
expansion

>  <fragmenstein_error>  (151) 


$$$$
C1497-P191
     RDKit          3D

 44 46  0  0  0  0  0  0  0  0999 V2000
   11.0489   -2.8392   14.3883 C   0  0  0  0  0  0  0  0  0  0  0  0
   12.3173   -2.2559   14.8898 C   0  0  0  0  0  0  0  0  0  0  0  0
   12.3272   -1.4420   16.0193 C   0  0  0  0  0  0  0  0  0  0  0  0
   13.5367   -0.9253   16.4954 C   0  0  0  0  0  0  0  0  0  0  0  0
   13.5413    0.1218   17.3665 O   0  0  0  0  0  0  0  0  0  0  0  0
   13.2901    1.6057   16.7133 S   0  0  0  0  0  0  0  0  0  0  0  0
   13.6302    2.6100   17.7004 O   0  0  0  0  0  0  0  0  0  0  0  0
   13.7983    1.6680   15.3586 O   0  0  0  0  0  0  0  0  0  0  0  0
   11.7073    1.7223   16.5460 F   0  0  0  0  0  0  0  0  0  0  0  0
   14.7612   -1.3493   16.0149 C   0  0  0  0  0  0  0  0  0  0  0  0
   14.7271   -2.1526   14.9157 C   0  0  0  0  0  0  0  0  0  0  0  0
   13.5362   -2.4884   14.2758 C   0  0  0  0  0  0  0  0  0  0  0  0
   13.8381   -2.8849   12.8566 C   0  0  0  0  0  0  0  0  0  0  0  0
   15.3032   -2.8156   12.8043 N   0  0  0  0  0  0  0  0  0  0  0  0
   15.8359   -2.5461   14.0482 C   0  0  0  0  0  0  0  0  0  0  0  0
   17.0527   -2.6692   14.4754 N   0  0  0  0  0  0  0  0  0  0  0  0
   17.9657   -2.8864   13.4837 N   0  0  0  0  0  0  0  0  0  0  0  0
   19.3616   -2.5697   13.7956 C   0  0  0  0  0  0  0  0  0  0  0  0
   19.4644   -1.3551   14.5287 O   0  0  0  0  0  0  0  0  0  0  0  0
   20.2059   -1.4635   15.7432 C   0  0  0  0  0  0  0  0  0  0  0  0
   19.6400   -2.4275   16.7895 C   0  0  0  0  0  0  0  0  0  0  0  0
   18.5227   -1.9212   17.5554 N   0  0  0  0  0  0  0  0  0  0  0  0
   17.4011   -2.6224   17.8896 C   0  0  0  0  0  0  0  0  0  0  0  0
   16.6734   -1.7856   18.6845 C   0  0  0  0  0  0  0  0  0  0  0  0
   15.0270   -2.1338   19.4671 Br  0  0  0  0  0  0  0  0  0  0  0  0
   17.4226   -0.6122   18.7933 C   0  0  0  0  0  0  0  0  0  0  0  0
   18.6017   -0.7221   18.1705 N   0  0  0  0  0  0  0  0  0  0  0  0
   10.2109   -2.1557   14.5493 H   0  0  0  0  0  0  0  0  0  0  0  0
   11.1316   -3.0636   13.3244 H   0  0  0  0  0  0  0  0  0  0  0  0
   10.8501   -3.7718   14.9202 H   0  0  0  0  0  0  0  0  0  0  0  0
   11.3893   -1.1303   16.4618 H   0  0  0  0  0  0  0  0  0  0  0  0
   15.6988   -0.9217   16.3453 H   0  0  0  0  0  0  0  0  0  0  0  0
   13.4369   -2.1229   12.1927 H   0  0  0  0  0  0  0  0  0  0  0  0
   13.4511   -3.8677   12.5949 H   0  0  0  0  0  0  0  0  0  0  0  0
   15.7797   -3.4821   12.2052 H   0  0  0  0  0  0  0  0  0  0  0  0
   17.7216   -2.3043   12.6766 H   0  0  0  0  0  0  0  0  0  0  0  0
   19.8282   -3.4186   14.3056 H   0  0  0  0  0  0  0  0  0  0  0  0
   19.9112   -2.4387   12.8571 H   0  0  0  0  0  0  0  0  0  0  0  0
   21.2213   -1.7837   15.4781 H   0  0  0  0  0  0  0  0  0  0  0  0
   20.2998   -0.4520   16.1521 H   0  0  0  0  0  0  0  0  0  0  0  0
   20.4202   -2.6425   17.5303 H   0  0  0  0  0  0  0  0  0  0  0  0
   19.3306   -3.3820   16.3556 H   0  0  0  0  0  0  0  0  0  0  0  0
   17.2204   -3.6233   17.5237 H   0  0  0  0  0  0  0  0  0  0  0  0
   17.1966    0.2974   19.3337 H   0  0  0  0  0  0  0  0  0  0  0  0
  1  2  1  0
  2  3  2  0
  3  4  1  0
  4  5  1  0
  5  6  1  0
  6  7  2  0
  6  8  2  0
  6  9  1  0
  4 10  2  0
 10 11  1  0
 11 12  2  0
 12 13  1  0
 13 14  1  0
 14 15  1  0
 15 16  2  3
 16 17  1  0
 17 18  1  0
 18 19  1  0
 19 20  1  0
 20 21  1  0
 21 22  1  0
 22 23  1  0
 23 24  2  0
 24 25  1  0
 24 26  1  0
 26 27  2  0
 12  2  1  0
 27 22  1  0
 15 11  1  0
  1 28  1  0
  1 29  1  0
  1 30  1  0
  3 31  1  0
 10 32  1  0
 13 33  1  0
 13 34  1  0
 14 35  1  0
 17 36  1  0
 18 37  1  0
 18 38  1  0
 20 39  1  0
 20 40  1  0
 21 41  1  0
 21 42  1  0
 23 43  1  0
 26 44  1  0
M  END
>  <Energy>  (152) 
50.360821786546531

>  <compound_id>  (152) 
1497

>  <target_id>  (152) 
1

>  <reference_id>  (152) 
191

>  <inspiration_ids>  (152) 
[6, 191]

>  <energy_score>  (152) 
-46.739403764850806

>  <distance_score>  (152) 
1.6678323444859824

>  <path>  (152) 
/opt/xchem-fragalysis-2/maxwin/BulkDock/SCRATCH/505732/C1497-P191/C1497-P191.minimised.mol

>  <scratch_subdir>  (152) 
/opt/xchem-fragalysis-2/maxwin/BulkDock/SCRATCH/505732/C1497-P191

>  <fragmenstein_runtime>  (152) 
18.31452226638794

>  <fragmenstein_outcome>  (152) 
too moved

>  <fragmenstein_mode>  (152) 
expansion

>  <fragmenstein_error>  (152) 


$$$$
C1504-P8
     RDKit          3D

 49 52  0  0  0  0  0  0  0  0999 V2000
   15.7392    1.3486   16.4511 C   0  0  0  0  0  0  0  0  0  0  0  0
   14.6179    0.3848   16.5560 C   0  0  0  0  0  0  0  0  0  0  0  0
   14.7707   -0.7864   17.1350 N   0  0  0  0  0  0  0  0  0  0  0  0
   13.7250   -1.5399   16.7143 C   0  0  0  0  0  0  0  0  0  0  0  0
   13.5000   -2.9051   16.9444 C   0  0  0  0  0  0  0  0  0  0  0  0
   12.4263   -3.5256   16.3124 C   0  0  0  0  0  0  0  0  0  0  0  0
   11.6127   -2.8018   15.4472 C   0  0  0  0  0  0  0  0  0  0  0  0
   11.8036   -1.4284   15.2396 C   0  0  0  0  0  0  0  0  0  0  0  0
   12.8524   -0.7885   15.9235 C   0  0  0  0  0  0  0  0  0  0  0  0
   13.3298    0.5210   16.0396 N   0  0  0  0  0  0  0  0  0  0  0  0
   12.6672    1.7998   15.6474 C   0  0  0  0  0  0  0  0  0  0  0  0
   12.9862    2.9940   16.6649 C   0  0  0  0  0  0  0  0  0  0  0  0
   14.2050    3.8089   16.4722 N   0  0  0  0  0  0  0  0  0  0  0  0
   14.1579    4.9460   17.3769 N   0  0  0  0  0  0  0  0  0  0  0  0
   15.4376    5.7073   17.2695 C   0  0  0  0  0  0  0  0  0  0  0  0
   15.4188    5.8449   18.8113 C   0  0  0  0  0  0  0  0  0  0  0  0
   16.6903    5.7848   19.4923 O   0  0  0  0  0  0  0  0  0  0  0  0
   14.5882    4.5410   18.7536 C   0  0  0  0  0  0  0  0  0  0  0  0
   11.0994    1.7281   15.7303 C   0  0  0  0  0  0  0  0  0  0  0  0
   10.4642    2.6520   14.6963 C   0  0  0  0  0  0  0  0  0  0  0  0
   10.7649    2.1553   13.2829 C   0  0  0  0  0  0  0  0  0  0  0  0
   12.1863    1.6317   13.1170 C   0  0  0  0  0  0  0  0  0  0  0  0
   13.1024    2.1742   14.2021 C   0  0  0  0  0  0  0  0  0  0  0  0
   15.8014    1.9712   17.3447 H   0  0  0  0  0  0  0  0  0  0  0  0
   15.6977    1.9583   15.5484 H   0  0  0  0  0  0  0  0  0  0  0  0
   16.6840    0.7945   16.3951 H   0  0  0  0  0  0  0  0  0  0  0  0
   14.1765   -3.4635   17.5813 H   0  0  0  0  0  0  0  0  0  0  0  0
   12.2463   -4.5850   16.4738 H   0  0  0  0  0  0  0  0  0  0  0  0
   10.8120   -3.3114   14.9140 H   0  0  0  0  0  0  0  0  0  0  0  0
   11.1587   -0.9189   14.5321 H   0  0  0  0  0  0  0  0  0  0  0  0
   12.1507    3.7067   16.6352 H   0  0  0  0  0  0  0  0  0  0  0  0
   12.9903    2.5744   17.6805 H   0  0  0  0  0  0  0  0  0  0  0  0
   14.2246    4.1633   15.5148 H   0  0  0  0  0  0  0  0  0  0  0  0
   15.3543    6.6501   16.7205 H   0  0  0  0  0  0  0  0  0  0  0  0
   16.3015    5.1490   16.8840 H   0  0  0  0  0  0  0  0  0  0  0  0
   14.8359    6.7071   19.1618 H   0  0  0  0  0  0  0  0  0  0  0  0
   17.1114    6.6418   19.3104 H   0  0  0  0  0  0  0  0  0  0  0  0
   13.7707    4.4824   19.4789 H   0  0  0  0  0  0  0  0  0  0  0  0
   15.1921    3.6284   18.8276 H   0  0  0  0  0  0  0  0  0  0  0  0
   10.6821    0.7364   15.5872 H   0  0  0  0  0  0  0  0  0  0  0  0
   10.7475    2.0173   16.7281 H   0  0  0  0  0  0  0  0  0  0  0  0
   10.8405    3.6758   14.8101 H   0  0  0  0  0  0  0  0  0  0  0  0
    9.3904    2.7216   14.8772 H   0  0  0  0  0  0  0  0  0  0  0  0
   10.0803    1.3457   13.0121 H   0  0  0  0  0  0  0  0  0  0  0  0
   10.5906    2.9757   12.5780 H   0  0  0  0  0  0  0  0  0  0  0  0
   12.1924    0.5383   13.1336 H   0  0  0  0  0  0  0  0  0  0  0  0
   12.5650    1.9164   12.1281 H   0  0  0  0  0  0  0  0  0  0  0  0
   13.1182    3.2633   14.0736 H   0  0  0  0  0  0  0  0  0  0  0  0
   14.1225    1.8338   13.9930 H   0  0  0  0  0  0  0  0  0  0  0  0
  1  2  1  0
  2  3  2  0
  3  4  1  0
  4  5  2  0
  5  6  1  0
  6  7  2  0
  7  8  1  0
  8  9  2  0
  9 10  1  0
 10 11  1  0
 11 12  1  0
 12 13  1  0
 13 14  1  0
 14 15  1  0
 15 16  1  0
 16 17  1  0
 16 18  1  0
 11 19  1  0
 19 20  1  0
 20 21  1  0
 21 22  1  0
 22 23  1  0
 10  2  1  0
 23 11  1  0
  9  4  1  0
 18 14  1  0
  1 24  1  0
  1 25  1  0
  1 26  1  0
  5 27  1  0
  6 28  1  0
  7 29  1  0
  8 30  1  0
 12 31  1  0
 12 32  1  0
 13 33  1  0
 15 34  1  0
 15 35  1  0
 16 36  1  0
 17 37  1  0
 18 38  1  0
 18 39  1  0
 19 40  1  0
 19 41  1  0
 20 42  1  0
 20 43  1  0
 21 44  1  0
 21 45  1  0
 22 46  1  0
 22 47  1  0
 23 48  1  0
 23 49  1  0
M  END
>  <Energy>  (153) 
127.09541239607088

>  <compound_id>  (153) 
1504

>  <target_id>  (153) 
1

>  <reference_id>  (153) 
8

>  <inspiration_ids>  (153) 
[8, 5]

>  <energy_score>  (153) 
-54.55281201171249

>  <distance_score>  (153) 
1.181495229988902

>  <path>  (153) 
/opt/xchem-fragalysis-2/maxwin/BulkDock/SCRATCH/505732/C1504-P8/C1504-P8.minimised.mol

>  <scratch_subdir>  (153) 
/opt/xchem-fragalysis-2/maxwin/BulkDock/SCRATCH/505732/C1504-P8

>  <fragmenstein_runtime>  (153) 
4.302419900894165

>  <fragmenstein_outcome>  (153) 
too moved

>  <fragmenstein_mode>  (153) 
expansion

>  <fragmenstein_error>  (153) 


$$$$
C1504-P5
     RDKit          3D

 49 52  0  0  0  0  0  0  0  0999 V2000
   15.3842    1.7237   16.5709 C   0  0  0  0  0  0  0  0  0  0  0  0
   14.3662    0.6412   16.5450 C   0  0  0  0  0  0  0  0  0  0  0  0
   14.6083   -0.5390   17.0724 N   0  0  0  0  0  0  0  0  0  0  0  0
   13.6129   -1.3528   16.6399 C   0  0  0  0  0  0  0  0  0  0  0  0
   13.4778   -2.7337   16.8536 C   0  0  0  0  0  0  0  0  0  0  0  0
   12.4299   -3.4119   16.2383 C   0  0  0  0  0  0  0  0  0  0  0  0
   11.5525   -2.7256   15.4054 C   0  0  0  0  0  0  0  0  0  0  0  0
   11.6553   -1.3390   15.2103 C   0  0  0  0  0  0  0  0  0  0  0  0
   12.6843   -0.6471   15.8702 C   0  0  0  0  0  0  0  0  0  0  0  0
   13.0903    0.6875   15.9721 N   0  0  0  0  0  0  0  0  0  0  0  0
   12.3766    1.9361   15.4763 C   0  0  0  0  0  0  0  0  0  0  0  0
   12.9232    2.1507   14.0331 C   0  0  0  0  0  0  0  0  0  0  0  0
   12.6439    3.3889   13.2842 N   0  0  0  0  0  0  0  0  0  0  0  0
   13.7712    4.2889   13.4055 N   0  0  0  0  0  0  0  0  0  0  0  0
   13.4522    5.5769   12.7191 C   0  0  0  0  0  0  0  0  0  0  0  0
   14.8740    5.5433   12.1099 C   0  0  0  0  0  0  0  0  0  0  0  0
   15.0205    6.0270   10.7578 O   0  0  0  0  0  0  0  0  0  0  0  0
   14.7423    4.0141   12.2970 C   0  0  0  0  0  0  0  0  0  0  0  0
   12.6747    3.1371   16.4311 C   0  0  0  0  0  0  0  0  0  0  0  0
   11.7911    4.3812   16.3198 C   0  0  0  0  0  0  0  0  0  0  0  0
   10.3105    4.0807   16.3027 C   0  0  0  0  0  0  0  0  0  0  0  0
    9.9557    2.9847   15.3272 C   0  0  0  0  0  0  0  0  0  0  0  0
   10.8263    1.7352   15.4520 C   0  0  0  0  0  0  0  0  0  0  0  0
   15.2237    2.3873   17.4252 H   0  0  0  0  0  0  0  0  0  0  0  0
   15.4120    2.3018   15.6457 H   0  0  0  0  0  0  0  0  0  0  0  0
   16.3817    1.2859   16.6927 H   0  0  0  0  0  0  0  0  0  0  0  0
   14.1998   -3.2563   17.4708 H   0  0  0  0  0  0  0  0  0  0  0  0
   12.3199   -4.4825   16.3883 H   0  0  0  0  0  0  0  0  0  0  0  0
   10.7725   -3.2754   14.8821 H   0  0  0  0  0  0  0  0  0  0  0  0
   10.9641   -0.8633   14.5262 H   0  0  0  0  0  0  0  0  0  0  0  0
   14.0002    1.9423   13.9965 H   0  0  0  0  0  0  0  0  0  0  0  0
   12.5023    1.3482   13.4099 H   0  0  0  0  0  0  0  0  0  0  0  0
   11.7986    3.8304   13.6375 H   0  0  0  0  0  0  0  0  0  0  0  0
   13.2619    6.4120   13.4002 H   0  0  0  0  0  0  0  0  0  0  0  0
   12.6475    5.5411   11.9723 H   0  0  0  0  0  0  0  0  0  0  0  0
   15.6363    5.9884   12.7632 H   0  0  0  0  0  0  0  0  0  0  0  0
   14.9959    6.9960   10.8356 H   0  0  0  0  0  0  0  0  0  0  0  0
   15.6579    3.5084   12.6189 H   0  0  0  0  0  0  0  0  0  0  0  0
   14.3384    3.4909   11.4197 H   0  0  0  0  0  0  0  0  0  0  0  0
   12.6131    2.7817   17.4678 H   0  0  0  0  0  0  0  0  0  0  0  0
   13.6944    3.4999   16.2876 H   0  0  0  0  0  0  0  0  0  0  0  0
   12.0508    4.9578   15.4289 H   0  0  0  0  0  0  0  0  0  0  0  0
   12.0109    5.0469   17.1640 H   0  0  0  0  0  0  0  0  0  0  0  0
    9.9778    3.7848   17.2969 H   0  0  0  0  0  0  0  0  0  0  0  0
    9.7504    4.9910   16.0583 H   0  0  0  0  0  0  0  0  0  0  0  0
    8.9131    2.7017   15.5118 H   0  0  0  0  0  0  0  0  0  0  0  0
    9.9840    3.3689   14.3034 H   0  0  0  0  0  0  0  0  0  0  0  0
   10.5405    1.0960   14.6128 H   0  0  0  0  0  0  0  0  0  0  0  0
   10.5103    1.2132   16.3608 H   0  0  0  0  0  0  0  0  0  0  0  0
  1  2  1  0
  2  3  2  0
  3  4  1  0
  4  5  2  0
  5  6  1  0
  6  7  2  0
  7  8  1  0
  8  9  2  0
  9 10  1  0
 10 11  1  0
 11 12  1  0
 12 13  1  0
 13 14  1  0
 14 15  1  0
 15 16  1  0
 16 17  1  0
 16 18  1  0
 11 19  1  0
 19 20  1  0
 20 21  1  0
 21 22  1  0
 22 23  1  0
 10  2  1  0
 23 11  1  0
  9  4  1  0
 18 14  1  0
  1 24  1  0
  1 25  1  0
  1 26  1  0
  5 27  1  0
  6 28  1  0
  7 29  1  0
  8 30  1  0
 12 31  1  0
 12 32  1  0
 13 33  1  0
 15 34  1  0
 15 35  1  0
 16 36  1  0
 17 37  1  0
 18 38  1  0
 18 39  1  0
 19 40  1  0
 19 41  1  0
 20 42  1  0
 20 43  1  0
 21 44  1  0
 21 45  1  0
 22 46  1  0
 22 47  1  0
 23 48  1  0
 23 49  1  0
M  END
>  <Energy>  (154) 
117.83295499078018

>  <compound_id>  (154) 
1504

>  <target_id>  (154) 
1

>  <reference_id>  (154) 
5

>  <inspiration_ids>  (154) 
[8, 5]

>  <energy_score>  (154) 
-63.81526941699937

>  <distance_score>  (154) 
1.1067416354841197

>  <path>  (154) 
/opt/xchem-fragalysis-2/maxwin/BulkDock/SCRATCH/505732/C1504-P5/C1504-P5.minimised.mol

>  <scratch_subdir>  (154) 
/opt/xchem-fragalysis-2/maxwin/BulkDock/SCRATCH/505732/C1504-P5

>  <fragmenstein_runtime>  (154) 
3.2187156677246094

>  <fragmenstein_outcome>  (154) 
too moved

>  <fragmenstein_mode>  (154) 
expansion

>  <fragmenstein_error>  (154) 


$$$$
C1505-P8
     RDKit          3D

 40 42  0  0  0  0  0  0  0  0999 V2000
   14.6960    2.0299   16.6384 C   0  0  0  0  0  0  0  0  0  0  0  0
   14.3704    0.6740   16.0213 C   0  0  0  0  0  0  0  0  0  0  0  0
   14.4979   -0.4100   17.0227 N   0  0  0  0  0  0  0  0  0  0  0  0
   15.7897   -0.8056   17.5835 C   0  0  0  0  0  0  0  0  0  0  0  0
   16.7220   -1.4539   16.5647 C   0  0  0  0  0  0  0  0  0  0  0  0
   18.0373   -1.8192   17.2483 C   0  0  0  0  0  0  0  0  0  0  0  0
   18.9819   -0.7200   17.1936 N   0  0  0  0  0  0  0  0  0  0  0  0
   18.1287   -2.9025   17.7540 O   0  0  0  0  0  0  0  0  0  0  0  0
   13.5965   -1.3916   16.5793 C   0  0  0  0  0  0  0  0  0  0  0  0
   13.5249   -2.7155   16.9901 C   0  0  0  0  0  0  0  0  0  0  0  0
   12.5649   -3.5542   16.4225 C   0  0  0  0  0  0  0  0  0  0  0  0
   11.6784   -3.0679   15.4574 C   0  0  0  0  0  0  0  0  0  0  0  0
   11.7300   -1.7366   15.0599 C   0  0  0  0  0  0  0  0  0  0  0  0
   12.6836   -0.9045   15.6311 C   0  0  0  0  0  0  0  0  0  0  0  0
   12.9187    0.5678   15.3948 C   0  0  0  0  0  0  0  0  0  0  0  0
   12.8998    1.0097   13.9310 C   0  0  0  0  0  0  0  0  0  0  0  0
   11.4701    1.4566   13.6566 C   0  0  0  0  0  0  0  0  0  0  0  0
   10.7954    1.5369   15.0146 C   0  0  0  0  0  0  0  0  0  0  0  0
   11.8459    1.3756   16.0174 N   0  0  0  0  0  0  0  0  0  0  0  0
   14.5091    2.8417   15.9283 H   0  0  0  0  0  0  0  0  0  0  0  0
   15.7517    2.0831   16.9246 H   0  0  0  0  0  0  0  0  0  0  0  0
   14.1075    2.2133   17.5439 H   0  0  0  0  0  0  0  0  0  0  0  0
   15.0975    0.4923   15.2163 H   0  0  0  0  0  0  0  0  0  0  0  0
   16.2736    0.0829   18.0066 H   0  0  0  0  0  0  0  0  0  0  0  0
   15.6377   -1.4716   18.4422 H   0  0  0  0  0  0  0  0  0  0  0  0
   16.9035   -0.8035   15.7028 H   0  0  0  0  0  0  0  0  0  0  0  0
   16.2928   -2.3756   16.1549 H   0  0  0  0  0  0  0  0  0  0  0  0
   18.5169    0.1047   16.7733 H   0  0  0  0  0  0  0  0  0  0  0  0
   18.6063    0.0178   16.5711 H   0  0  0  0  0  0  0  0  0  0  0  0
   14.1946   -3.1125   17.7451 H   0  0  0  0  0  0  0  0  0  0  0  0
   12.5042   -4.5939   16.7325 H   0  0  0  0  0  0  0  0  0  0  0  0
   10.9373   -3.7304   15.0187 H   0  0  0  0  0  0  0  0  0  0  0  0
   11.0292   -1.3695   14.3200 H   0  0  0  0  0  0  0  0  0  0  0  0
   13.2110    0.2235   13.2343 H   0  0  0  0  0  0  0  0  0  0  0  0
   13.5641    1.8694   13.7770 H   0  0  0  0  0  0  0  0  0  0  0  0
   10.9518    0.7427   13.0085 H   0  0  0  0  0  0  0  0  0  0  0  0
   11.4650    2.4275   13.1491 H   0  0  0  0  0  0  0  0  0  0  0  0
   10.0480    0.7435   15.1244 H   0  0  0  0  0  0  0  0  0  0  0  0
   10.2706    2.4887   15.1477 H   0  0  0  0  0  0  0  0  0  0  0  0
   12.2082    2.2936   16.2674 H   0  0  0  0  0  0  0  0  0  0  0  0
  1  2  1  0
  2  3  1  0
  3  4  1  0
  4  5  1  0
  5  6  1  0
  6  7  1  0
  6  8  2  0
  3  9  1  0
  9 10  2  0
 10 11  1  0
 11 12  2  0
 12 13  1  0
 13 14  2  0
 14 15  1  0
 15 16  1  0
 16 17  1  0
 17 18  1  0
 18 19  1  0
 15  2  1  0
 14  9  1  0
 19 15  1  0
  1 20  1  0
  1 21  1  0
  1 22  1  0
  2 23  1  0
  4 24  1  0
  4 25  1  0
  5 26  1  0
  5 27  1  0
  7 28  1  0
  7 29  1  0
 10 30  1  0
 11 31  1  0
 12 32  1  0
 13 33  1  0
 16 34  1  0
 16 35  1  0
 17 36  1  0
 17 37  1  0
 18 38  1  0
 18 39  1  0
 19 40  1  0
M  END
>  <Energy>  (155) 
222.64102121657208

>  <compound_id>  (155) 
1505

>  <target_id>  (155) 
1

>  <reference_id>  (155) 
8

>  <inspiration_ids>  (155) 
[8, 6]

>  <energy_score>  (155) 
133.32383633511694

>  <distance_score>  (155) 
1.4483533013300376

>  <path>  (155) 
/opt/xchem-fragalysis-2/maxwin/BulkDock/SCRATCH/505732/C1505-P8/C1505-P8.minimised.mol

>  <scratch_subdir>  (155) 
/opt/xchem-fragalysis-2/maxwin/BulkDock/SCRATCH/505732/C1505-P8

>  <fragmenstein_runtime>  (155) 
2.6149561405181885

>  <fragmenstein_outcome>  (155) 
too moved

>  <fragmenstein_mode>  (155) 
expansion

>  <fragmenstein_error>  (155) 


$$$$
C1505-P6
     RDKit          3D

 40 42  0  0  0  0  0  0  0  0999 V2000
   15.7850    1.4483   16.2255 C   0  0  0  0  0  0  0  0  0  0  0  0
   14.9677    0.2077   15.8780 C   0  0  0  0  0  0  0  0  0  0  0  0
   14.9904   -0.8677   16.9228 N   0  0  0  0  0  0  0  0  0  0  0  0
   14.9315   -0.5166   18.3473 C   0  0  0  0  0  0  0  0  0  0  0  0
   16.0580   -1.1643   19.1502 C   0  0  0  0  0  0  0  0  0  0  0  0
   15.8478   -2.6510   19.4677 C   0  0  0  0  0  0  0  0  0  0  0  0
   14.8218   -2.8491   20.4795 N   0  0  0  0  0  0  0  0  0  0  0  0
   16.5330   -3.4455   18.8845 O   0  0  0  0  0  0  0  0  0  0  0  0
   13.8448   -1.6318   16.5233 C   0  0  0  0  0  0  0  0  0  0  0  0
   13.5829   -2.9419   16.8913 C   0  0  0  0  0  0  0  0  0  0  0  0
   12.4554   -3.5784   16.3715 C   0  0  0  0  0  0  0  0  0  0  0  0
   11.6050   -2.9090   15.4842 C   0  0  0  0  0  0  0  0  0  0  0  0
   11.8554   -1.5854   15.1283 C   0  0  0  0  0  0  0  0  0  0  0  0
   12.9744   -0.9522   15.6572 C   0  0  0  0  0  0  0  0  0  0  0  0
   13.4752    0.4527   15.4444 C   0  0  0  0  0  0  0  0  0  0  0  0
   13.3427    0.9851   14.0184 C   0  0  0  0  0  0  0  0  0  0  0  0
   12.0145    1.7328   13.9901 C   0  0  0  0  0  0  0  0  0  0  0  0
   11.5545    1.8109   15.4365 C   0  0  0  0  0  0  0  0  0  0  0  0
   12.7045    1.4252   16.2594 N   0  0  0  0  0  0  0  0  0  0  0  0
   15.8846    2.1014   15.3525 H   0  0  0  0  0  0  0  0  0  0  0  0
   16.7940    1.1660   16.5455 H   0  0  0  0  0  0  0  0  0  0  0  0
   15.3407    2.0455   17.0261 H   0  0  0  0  0  0  0  0  0  0  0  0
   15.4867   -0.2339   15.0101 H   0  0  0  0  0  0  0  0  0  0  0  0
   15.0239    0.5644   18.4820 H   0  0  0  0  0  0  0  0  0  0  0  0
   13.9662   -0.7647   18.7900 H   0  0  0  0  0  0  0  0  0  0  0  0
   16.1787   -0.6373   20.1052 H   0  0  0  0  0  0  0  0  0  0  0  0
   17.0134   -1.0570   18.6213 H   0  0  0  0  0  0  0  0  0  0  0  0
   14.5218   -1.9252   20.8431 H   0  0  0  0  0  0  0  0  0  0  0  0
   14.3571   -1.9426   20.6726 H   0  0  0  0  0  0  0  0  0  0  0  0
   14.2626   -3.4958   17.5259 H   0  0  0  0  0  0  0  0  0  0  0  0
   12.2620   -4.6171   16.6296 H   0  0  0  0  0  0  0  0  0  0  0  0
   10.7577   -3.4329   15.0492 H   0  0  0  0  0  0  0  0  0  0  0  0
   11.1922   -1.0842   14.4310 H   0  0  0  0  0  0  0  0  0  0  0  0
   13.3727    0.2001   13.2546 H   0  0  0  0  0  0  0  0  0  0  0  0
   14.1438    1.6975   13.7879 H   0  0  0  0  0  0  0  0  0  0  0  0
   11.2767    1.2085   13.3729 H   0  0  0  0  0  0  0  0  0  0  0  0
   12.1539    2.7324   13.5636 H   0  0  0  0  0  0  0  0  0  0  0  0
   10.7191    1.1251   15.6158 H   0  0  0  0  0  0  0  0  0  0  0  0
   11.2048    2.8153   15.6967 H   0  0  0  0  0  0  0  0  0  0  0  0
   13.2798    2.2549   16.3970 H   0  0  0  0  0  0  0  0  0  0  0  0
  1  2  1  0
  2  3  1  0
  3  4  1  0
  4  5  1  0
  5  6  1  0
  6  7  1  0
  6  8  2  0
  3  9  1  0
  9 10  2  0
 10 11  1  0
 11 12  2  0
 12 13  1  0
 13 14  2  0
 14 15  1  0
 15 16  1  0
 16 17  1  0
 17 18  1  0
 18 19  1  0
 15  2  1  0
 14  9  1  0
 19 15  1  0
  1 20  1  0
  1 21  1  0
  1 22  1  0
  2 23  1  0
  4 24  1  0
  4 25  1  0
  5 26  1  0
  5 27  1  0
  7 28  1  0
  7 29  1  0
 10 30  1  0
 11 31  1  0
 12 32  1  0
 13 33  1  0
 16 34  1  0
 16 35  1  0
 17 36  1  0
 17 37  1  0
 18 38  1  0
 18 39  1  0
 19 40  1  0
M  END
>  <Energy>  (156) 
230.59777345778869

>  <compound_id>  (156) 
1505

>  <target_id>  (156) 
1

>  <reference_id>  (156) 
6

>  <inspiration_ids>  (156) 
[8, 6]

>  <energy_score>  (156) 
141.28058857633636

>  <distance_score>  (156) 
1.7543011570081586

>  <path>  (156) 
/opt/xchem-fragalysis-2/maxwin/BulkDock/SCRATCH/505732/C1505-P6/C1505-P6.minimised.mol

>  <scratch_subdir>  (156) 
/opt/xchem-fragalysis-2/maxwin/BulkDock/SCRATCH/505732/C1505-P6

>  <fragmenstein_runtime>  (156) 
3.019843816757202

>  <fragmenstein_outcome>  (156) 
too moved

>  <fragmenstein_mode>  (156) 
expansion

>  <fragmenstein_error>  (156) 


$$$$
C1506-P8
     RDKit          3D

 45 47  0  0  0  0  0  0  0  0999 V2000
   12.3083    1.2392   14.1826 C   0  0  0  0  0  0  0  0  0  0  0  0
   13.2604    0.3064   14.8490 C   0  0  0  0  0  0  0  0  0  0  0  0
   14.5936    0.5518   15.1444 C   0  0  0  0  0  0  0  0  0  0  0  0
   15.4058    1.7810   14.9274 C   0  0  0  0  0  0  0  0  0  0  0  0
   15.1221   -0.6179   15.6451 N   0  0  0  0  0  0  0  0  0  0  0  0
   16.5378   -0.9889   15.6210 C   0  0  0  0  0  0  0  0  0  0  0  0
   16.7767   -1.9903   14.4868 C   0  0  0  0  0  0  0  0  0  0  0  0
   18.1104   -2.7112   14.6187 C   0  0  0  0  0  0  0  0  0  0  0  0
   18.0778   -3.9636   13.8786 N   0  0  0  0  0  0  0  0  0  0  0  0
   18.9979   -2.1920   15.2347 O   0  0  0  0  0  0  0  0  0  0  0  0
   14.1057   -1.5188   15.9292 C   0  0  0  0  0  0  0  0  0  0  0  0
   14.1231   -2.7614   16.6007 C   0  0  0  0  0  0  0  0  0  0  0  0
   15.2755   -3.2585   17.2647 N   0  0  0  0  0  0  0  0  0  0  0  0
   15.3474   -3.4673   18.6772 C   0  0  0  0  0  0  0  0  0  0  0  0
   15.8852   -4.6696   19.1656 C   0  0  0  0  0  0  0  0  0  0  0  0
   15.9492   -4.9246   20.5392 C   0  0  0  0  0  0  0  0  0  0  0  0
   15.5059   -3.9673   21.4480 C   0  0  0  0  0  0  0  0  0  0  0  0
   15.0364   -2.7409   20.9859 C   0  0  0  0  0  0  0  0  0  0  0  0
   14.9882   -2.4878   19.6168 C   0  0  0  0  0  0  0  0  0  0  0  0
   14.6330   -1.2195   19.2484 O   0  0  0  0  0  0  0  0  0  0  0  0
   12.9524   -3.5286   16.5342 C   0  0  0  0  0  0  0  0  0  0  0  0
   11.8417   -3.0925   15.8200 C   0  0  0  0  0  0  0  0  0  0  0  0
   11.8158   -1.8271   15.2361 C   0  0  0  0  0  0  0  0  0  0  0  0
   12.9619   -1.0142   15.3071 C   0  0  0  0  0  0  0  0  0  0  0  0
   11.4901    0.6983   13.6968 H   0  0  0  0  0  0  0  0  0  0  0  0
   11.8778    1.9261   14.9181 H   0  0  0  0  0  0  0  0  0  0  0  0
   12.8133    1.8288   13.4108 H   0  0  0  0  0  0  0  0  0  0  0  0
   16.0306    1.9955   15.8004 H   0  0  0  0  0  0  0  0  0  0  0  0
   14.7663    2.6538   14.7628 H   0  0  0  0  0  0  0  0  0  0  0  0
   16.0510    1.6639   14.0510 H   0  0  0  0  0  0  0  0  0  0  0  0
   17.1407   -0.0890   15.4665 H   0  0  0  0  0  0  0  0  0  0  0  0
   16.8030   -1.3767   16.6082 H   0  0  0  0  0  0  0  0  0  0  0  0
   16.7674   -1.4702   13.5210 H   0  0  0  0  0  0  0  0  0  0  0  0
   15.9721   -2.7312   14.4580 H   0  0  0  0  0  0  0  0  0  0  0  0
   17.0981   -4.1510   13.5677 H   0  0  0  0  0  0  0  0  0  0  0  0
   17.1681   -4.0359   13.3701 H   0  0  0  0  0  0  0  0  0  0  0  0
   15.4941   -4.1527   16.8268 H   0  0  0  0  0  0  0  0  0  0  0  0
   16.2617   -5.4292   18.4865 H   0  0  0  0  0  0  0  0  0  0  0  0
   16.3504   -5.8687   20.8990 H   0  0  0  0  0  0  0  0  0  0  0  0
   15.5472   -4.1619   22.5162 H   0  0  0  0  0  0  0  0  0  0  0  0
   14.7179   -1.9752   21.6887 H   0  0  0  0  0  0  0  0  0  0  0  0
   14.7790   -1.1720   18.2889 H   0  0  0  0  0  0  0  0  0  0  0  0
   12.9111   -4.5023   17.0154 H   0  0  0  0  0  0  0  0  0  0  0  0
   10.9841   -3.7476   15.7122 H   0  0  0  0  0  0  0  0  0  0  0  0
   10.9294   -1.4912   14.7023 H   0  0  0  0  0  0  0  0  0  0  0  0
  1  2  1  0
  2  3  2  0
  3  4  1  0
  3  5  1  0
  5  6  1  0
  6  7  1  0
  7  8  1  0
  8  9  1  0
  8 10  2  0
  5 11  1  0
 11 12  2  0
 12 13  1  0
 13 14  1  0
 14 15  2  0
 15 16  1  0
 16 17  2  0
 17 18  1  0
 18 19  2  0
 19 20  1  0
 12 21  1  0
 21 22  2  0
 22 23  1  0
 23 24  2  0
 24  2  1  0
 24 11  1  0
 19 14  1  0
  1 25  1  0
  1 26  1  0
  1 27  1  0
  4 28  1  0
  4 29  1  0
  4 30  1  0
  6 31  1  0
  6 32  1  0
  7 33  1  0
  7 34  1  0
  9 35  1  0
  9 36  1  0
 13 37  1  0
 15 38  1  0
 16 39  1  0
 17 40  1  0
 18 41  1  0
 20 42  1  0
 21 43  1  0
 22 44  1  0
 23 45  1  0
M  END
>  <Energy>  (157) 
188.32235378303207

>  <compound_id>  (157) 
1506

>  <target_id>  (157) 
1

>  <reference_id>  (157) 
8

>  <inspiration_ids>  (157) 
[8, 10]

>  <energy_score>  (157) 
120.33936408653759

>  <distance_score>  (157) 
2.10065221975586

>  <path>  (157) 
/opt/xchem-fragalysis-2/maxwin/BulkDock/SCRATCH/505732/C1506-P8/C1506-P8.minimised.mol

>  <scratch_subdir>  (157) 
/opt/xchem-fragalysis-2/maxwin/BulkDock/SCRATCH/505732/C1506-P8

>  <fragmenstein_runtime>  (157) 
2.931459903717041

>  <fragmenstein_outcome>  (157) 
too moved

>  <fragmenstein_mode>  (157) 
expansion

>  <fragmenstein_error>  (157) 


$$$$
C1506-P10
     RDKit          3D

 45 47  0  0  0  0  0  0  0  0999 V2000
   11.8902    0.9544   14.3820 C   0  0  0  0  0  0  0  0  0  0  0  0
   12.9092    0.3127   15.2629 C   0  0  0  0  0  0  0  0  0  0  0  0
   13.9990    0.9165   15.8621 C   0  0  0  0  0  0  0  0  0  0  0  0
   14.3939    2.3547   15.7942 C   0  0  0  0  0  0  0  0  0  0  0  0
   14.6973   -0.0615   16.5625 N   0  0  0  0  0  0  0  0  0  0  0  0
   15.8678    0.2379   17.3852 C   0  0  0  0  0  0  0  0  0  0  0  0
   17.1194    0.5915   16.5755 C   0  0  0  0  0  0  0  0  0  0  0  0
   17.8721   -0.6286   16.0446 C   0  0  0  0  0  0  0  0  0  0  0  0
   18.8787   -0.2188   15.0846 N   0  0  0  0  0  0  0  0  0  0  0  0
   17.6062   -1.7115   16.4805 O   0  0  0  0  0  0  0  0  0  0  0  0
   14.0387   -1.2882   16.4682 C   0  0  0  0  0  0  0  0  0  0  0  0
   14.3052   -2.5839   17.0038 C   0  0  0  0  0  0  0  0  0  0  0  0
   15.4910   -2.8992   17.7165 N   0  0  0  0  0  0  0  0  0  0  0  0
   15.9458   -4.1829   18.1148 C   0  0  0  0  0  0  0  0  0  0  0  0
   16.8922   -4.8675   17.3433 C   0  0  0  0  0  0  0  0  0  0  0  0
   17.3500   -6.1284   17.7359 C   0  0  0  0  0  0  0  0  0  0  0  0
   16.8569   -6.7222   18.8983 C   0  0  0  0  0  0  0  0  0  0  0  0
   15.8999   -6.0605   19.6653 C   0  0  0  0  0  0  0  0  0  0  0  0
   15.4440   -4.8099   19.2626 C   0  0  0  0  0  0  0  0  0  0  0  0
   14.5020   -4.1939   20.0374 O   0  0  0  0  0  0  0  0  0  0  0  0
   13.3051   -3.5575   16.8134 C   0  0  0  0  0  0  0  0  0  0  0  0
   12.1703   -3.3193   16.0504 C   0  0  0  0  0  0  0  0  0  0  0  0
   11.9715   -2.0833   15.4549 C   0  0  0  0  0  0  0  0  0  0  0  0
   12.8955   -1.0470   15.6872 C   0  0  0  0  0  0  0  0  0  0  0  0
   12.3082    1.8164   13.8527 H   0  0  0  0  0  0  0  0  0  0  0  0
   11.5261    0.2533   13.6243 H   0  0  0  0  0  0  0  0  0  0  0  0
   11.0374    1.2942   14.9782 H   0  0  0  0  0  0  0  0  0  0  0  0
   14.8908    2.7013   16.7034 H   0  0  0  0  0  0  0  0  0  0  0  0
   13.5123    2.9905   15.6596 H   0  0  0  0  0  0  0  0  0  0  0  0
   15.0601    2.5238   14.9426 H   0  0  0  0  0  0  0  0  0  0  0  0
   15.5847    1.0988   18.0036 H   0  0  0  0  0  0  0  0  0  0  0  0
   16.0409   -0.5630   18.1027 H   0  0  0  0  0  0  0  0  0  0  0  0
   17.8178    1.1260   17.2314 H   0  0  0  0  0  0  0  0  0  0  0  0
   16.8712    1.2518   15.7399 H   0  0  0  0  0  0  0  0  0  0  0  0
   18.8970    0.8162   15.0346 H   0  0  0  0  0  0  0  0  0  0  0  0
   18.7417    0.7830   14.8577 H   0  0  0  0  0  0  0  0  0  0  0  0
   16.2750   -2.4189   17.2505 H   0  0  0  0  0  0  0  0  0  0  0  0
   17.2822   -4.4171   16.4331 H   0  0  0  0  0  0  0  0  0  0  0  0
   18.0885   -6.6482   17.1316 H   0  0  0  0  0  0  0  0  0  0  0  0
   17.2079   -7.7059   19.1988 H   0  0  0  0  0  0  0  0  0  0  0  0
   15.5053   -6.5170   20.5678 H   0  0  0  0  0  0  0  0  0  0  0  0
   14.3117   -3.3498   19.5837 H   0  0  0  0  0  0  0  0  0  0  0  0
   13.4212   -4.5513   17.2382 H   0  0  0  0  0  0  0  0  0  0  0  0
   11.4403   -4.1099   15.9106 H   0  0  0  0  0  0  0  0  0  0  0  0
   11.0920   -1.9157   14.8365 H   0  0  0  0  0  0  0  0  0  0  0  0
  1  2  1  0
  2  3  2  0
  3  4  1  0
  3  5  1  0
  5  6  1  0
  6  7  1  0
  7  8  1  0
  8  9  1  0
  8 10  2  0
  5 11  1  0
 11 12  2  0
 12 13  1  0
 13 14  1  0
 14 15  2  0
 15 16  1  0
 16 17  2  0
 17 18  1  0
 18 19  2  0
 19 20  1  0
 12 21  1  0
 21 22  2  0
 22 23  1  0
 23 24  2  0
 24  2  1  0
 24 11  1  0
 19 14  1  0
  1 25  1  0
  1 26  1  0
  1 27  1  0
  4 28  1  0
  4 29  1  0
  4 30  1  0
  6 31  1  0
  6 32  1  0
  7 33  1  0
  7 34  1  0
  9 35  1  0
  9 36  1  0
 13 37  1  0
 15 38  1  0
 16 39  1  0
 17 40  1  0
 18 41  1  0
 20 42  1  0
 21 43  1  0
 22 44  1  0
 23 45  1  0
M  END
>  <Energy>  (158) 
180.91317839578772

>  <compound_id>  (158) 
1506

>  <target_id>  (158) 
1

>  <reference_id>  (158) 
10

>  <inspiration_ids>  (158) 
[8, 10]

>  <energy_score>  (158) 
112.93018869929182

>  <distance_score>  (158) 
2.4018236863393936

>  <path>  (158) 
/opt/xchem-fragalysis-2/maxwin/BulkDock/SCRATCH/505732/C1506-P10/C1506-P10.minimised.mol

>  <scratch_subdir>  (158) 
/opt/xchem-fragalysis-2/maxwin/BulkDock/SCRATCH/505732/C1506-P10

>  <fragmenstein_runtime>  (158) 
3.306810140609741

>  <fragmenstein_outcome>  (158) 
too moved

>  <fragmenstein_mode>  (158) 
expansion

>  <fragmenstein_error>  (158) 


$$$$
C1510-P8
     RDKit          3D

 42 44  0  0  0  0  0  0  0  0999 V2000
   19.3486    0.4885   14.3253 C   0  0  0  0  0  0  0  0  0  0  0  0
   18.2403    0.2752   15.3462 C   0  0  0  0  0  0  0  0  0  0  0  0
   17.0032    1.1129   15.0106 C   0  0  0  0  0  0  0  0  0  0  0  0
   15.8828    1.0537   16.0592 C   0  0  0  0  0  0  0  0  0  0  0  0
   16.3568    1.3866   17.3335 O   0  0  0  0  0  0  0  0  0  0  0  0
   14.8031    1.9912   15.7247 N   0  0  0  0  0  0  0  0  0  0  0  0
   13.7354    1.2337   15.0417 C   0  0  0  0  0  0  0  0  0  0  0  0
   13.9645   -0.0955   15.5394 N   0  0  0  0  0  0  0  0  0  0  0  0
   15.1665   -0.2289   16.1530 C   0  0  0  0  0  0  0  0  0  0  0  0
   15.2360   -1.4909   16.6985 C   0  0  0  0  0  0  0  0  0  0  0  0
   16.3642   -2.0890   17.4821 C   0  0  0  0  0  0  0  0  0  0  0  0
   17.1525   -3.1173   16.6632 C   0  0  0  0  0  0  0  0  0  0  0  0
   16.7340   -4.5513   17.0031 C   0  0  0  0  0  0  0  0  0  0  0  0
   16.4087   -5.3162   15.8147 N   0  0  0  0  0  0  0  0  0  0  0  0
   16.7641   -4.8773   18.1573 O   0  0  0  0  0  0  0  0  0  0  0  0
   13.9722   -2.1142   16.3855 C   0  0  0  0  0  0  0  0  0  0  0  0
   13.4033   -3.3583   16.7061 C   0  0  0  0  0  0  0  0  0  0  0  0
   12.1569   -3.6894   16.1764 C   0  0  0  0  0  0  0  0  0  0  0  0
   11.4731   -2.8134   15.3372 C   0  0  0  0  0  0  0  0  0  0  0  0
   11.9806   -1.5483   15.0518 C   0  0  0  0  0  0  0  0  0  0  0  0
   13.2252   -1.2249   15.5979 C   0  0  0  0  0  0  0  0  0  0  0  0
   19.6695    1.5348   14.3066 H   0  0  0  0  0  0  0  0  0  0  0  0
   19.0143    0.2127   13.3201 H   0  0  0  0  0  0  0  0  0  0  0  0
   20.2174   -0.1285   14.5755 H   0  0  0  0  0  0  0  0  0  0  0  0
   17.9812   -0.7848   15.3534 H   0  0  0  0  0  0  0  0  0  0  0  0
   18.6198    0.5316   16.3413 H   0  0  0  0  0  0  0  0  0  0  0  0
   16.6231    0.8129   14.0248 H   0  0  0  0  0  0  0  0  0  0  0  0
   17.3379    2.1558   14.9180 H   0  0  0  0  0  0  0  0  0  0  0  0
   15.5501    1.6418   17.8118 H   0  0  0  0  0  0  0  0  0  0  0  0
   15.1505    2.7334   15.1266 H   0  0  0  0  0  0  0  0  0  0  0  0
   13.8622    1.2232   13.9553 H   0  0  0  0  0  0  0  0  0  0  0  0
   12.7413    1.5781   15.3350 H   0  0  0  0  0  0  0  0  0  0  0  0
   17.0488   -1.2849   17.7789 H   0  0  0  0  0  0  0  0  0  0  0  0
   15.9710   -2.5120   18.4137 H   0  0  0  0  0  0  0  0  0  0  0  0
   18.2144   -3.0546   16.9357 H   0  0  0  0  0  0  0  0  0  0  0  0
   17.0972   -2.8997   15.5928 H   0  0  0  0  0  0  0  0  0  0  0  0
   16.6022   -4.7357   14.9739 H   0  0  0  0  0  0  0  0  0  0  0  0
   16.3730   -4.6740   14.9967 H   0  0  0  0  0  0  0  0  0  0  0  0
   13.9193   -4.0623   17.3515 H   0  0  0  0  0  0  0  0  0  0  0  0
   11.7266   -4.6597   16.4097 H   0  0  0  0  0  0  0  0  0  0  0  0
   10.5248   -3.1182   14.8993 H   0  0  0  0  0  0  0  0  0  0  0  0
   11.4317   -0.8639   14.4123 H   0  0  0  0  0  0  0  0  0  0  0  0
  1  2  1  0
  2  3  1  0
  3  4  1  0
  4  5  1  0
  4  6  1  0
  6  7  1  0
  7  8  1  0
  8  9  1  0
  9 10  2  0
 10 11  1  0
 11 12  1  0
 12 13  1  0
 13 14  1  0
 13 15  2  0
 10 16  1  0
 16 17  2  0
 17 18  1  0
 18 19  2  0
 19 20  1  0
 20 21  2  0
  9  4  1  0
 21 16  1  0
 21  8  1  0
  1 22  1  0
  1 23  1  0
  1 24  1  0
  2 25  1  0
  2 26  1  0
  3 27  1  0
  3 28  1  0
  5 29  1  0
  6 30  1  0
  7 31  1  0
  7 32  1  0
 11 33  1  0
 11 34  1  0
 12 35  1  0
 12 36  1  0
 14 37  1  0
 14 38  1  0
 17 39  1  0
 18 40  1  0
 19 41  1  0
 20 42  1  0
M  END
>  <Energy>  (159) 
119.41856116409623

>  <compound_id>  (159) 
1510

>  <target_id>  (159) 
1

>  <reference_id>  (159) 
8

>  <inspiration_ids>  (159) 
[8, 23]

>  <energy_score>  (159) 
149.64708738663384

>  <distance_score>  (159) 
2.7958553716470527

>  <path>  (159) 
/opt/xchem-fragalysis-2/maxwin/BulkDock/SCRATCH/505732/C1510-P8/C1510-P8.minimised.mol

>  <scratch_subdir>  (159) 
/opt/xchem-fragalysis-2/maxwin/BulkDock/SCRATCH/505732/C1510-P8

>  <fragmenstein_runtime>  (159) 
16.96236562728882

>  <fragmenstein_outcome>  (159) 
too moved

>  <fragmenstein_mode>  (159) 
expansion

>  <fragmenstein_error>  (159) 


$$$$
C1510-P23
     RDKit          3D

 42 44  0  0  0  0  0  0  0  0999 V2000
   13.5867    2.1401   22.1911 C   0  0  0  0  0  0  0  0  0  0  0  0
   14.5626    1.4095   21.2791 C   0  0  0  0  0  0  0  0  0  0  0  0
   14.6970    2.1130   19.9273 C   0  0  0  0  0  0  0  0  0  0  0  0
   15.7192    1.5081   18.9668 C   0  0  0  0  0  0  0  0  0  0  0  0
   16.9945    1.4338   19.5705 O   0  0  0  0  0  0  0  0  0  0  0  0
   15.8400    2.4178   17.8170 N   0  0  0  0  0  0  0  0  0  0  0  0
   15.4932    1.7018   16.5764 C   0  0  0  0  0  0  0  0  0  0  0  0
   15.3771    0.3381   17.0143 N   0  0  0  0  0  0  0  0  0  0  0  0
   15.4560    0.1874   18.3633 C   0  0  0  0  0  0  0  0  0  0  0  0
   15.4179   -1.1662   18.6425 C   0  0  0  0  0  0  0  0  0  0  0  0
   15.4736   -1.8914   19.9551 C   0  0  0  0  0  0  0  0  0  0  0  0
   16.7611   -1.6300   20.7318 C   0  0  0  0  0  0  0  0  0  0  0  0
   16.9542   -2.5976   21.9057 C   0  0  0  0  0  0  0  0  0  0  0  0
   18.0540   -2.1345   22.7350 N   0  0  0  0  0  0  0  0  0  0  0  0
   16.2670   -3.5746   21.9967 O   0  0  0  0  0  0  0  0  0  0  0  0
   15.4912   -1.8220   17.3558 C   0  0  0  0  0  0  0  0  0  0  0  0
   15.6572   -3.1664   16.9741 C   0  0  0  0  0  0  0  0  0  0  0  0
   15.8993   -3.4626   15.6340 C   0  0  0  0  0  0  0  0  0  0  0  0
   15.8958   -2.4627   14.6629 C   0  0  0  0  0  0  0  0  0  0  0  0
   15.6674   -1.1307   15.0020 C   0  0  0  0  0  0  0  0  0  0  0  0
   15.4996   -0.8404   16.3589 C   0  0  0  0  0  0  0  0  0  0  0  0
   13.9273    3.1603   22.3942 H   0  0  0  0  0  0  0  0  0  0  0  0
   12.5911    2.1930   21.7392 H   0  0  0  0  0  0  0  0  0  0  0  0
   13.4976    1.6151   23.1473 H   0  0  0  0  0  0  0  0  0  0  0  0
   15.5357    1.3539   21.7784 H   0  0  0  0  0  0  0  0  0  0  0  0
   14.1996    0.3909   21.1402 H   0  0  0  0  0  0  0  0  0  0  0  0
   13.7150    2.1851   19.4482 H   0  0  0  0  0  0  0  0  0  0  0  0
   15.0027    3.1469   20.1467 H   0  0  0  0  0  0  0  0  0  0  0  0
   17.5405    0.9016   18.9686 H   0  0  0  0  0  0  0  0  0  0  0  0
   16.8170    2.6933   17.7795 H   0  0  0  0  0  0  0  0  0  0  0  0
   16.2810    1.7855   15.8230 H   0  0  0  0  0  0  0  0  0  0  0  0
   14.5273    2.0262   16.1813 H   0  0  0  0  0  0  0  0  0  0  0  0
   14.6050   -1.6199   20.5628 H   0  0  0  0  0  0  0  0  0  0  0  0
   15.3625   -2.9671   19.7758 H   0  0  0  0  0  0  0  0  0  0  0  0
   16.7472   -0.6077   21.1204 H   0  0  0  0  0  0  0  0  0  0  0  0
   17.6320   -1.7351   20.0729 H   0  0  0  0  0  0  0  0  0  0  0  0
   18.4908   -1.3077   22.2872 H   0  0  0  0  0  0  0  0  0  0  0  0
   18.3376   -1.1871   22.4232 H   0  0  0  0  0  0  0  0  0  0  0  0
   15.6781   -3.9615   17.7131 H   0  0  0  0  0  0  0  0  0  0  0  0
   16.0972   -4.4919   15.3456 H   0  0  0  0  0  0  0  0  0  0  0  0
   16.0708   -2.7290   13.6221 H   0  0  0  0  0  0  0  0  0  0  0  0
   15.6697   -0.3564   14.2425 H   0  0  0  0  0  0  0  0  0  0  0  0
  1  2  1  0
  2  3  1  0
  3  4  1  0
  4  5  1  0
  4  6  1  0
  6  7  1  0
  7  8  1  0
  8  9  1  0
  9 10  2  0
 10 11  1  0
 11 12  1  0
 12 13  1  0
 13 14  1  0
 13 15  2  0
 10 16  1  0
 16 17  2  0
 17 18  1  0
 18 19  2  0
 19 20  1  0
 20 21  2  0
  9  4  1  0
 21 16  1  0
 21  8  1  0
  1 22  1  0
  1 23  1  0
  1 24  1  0
  2 25  1  0
  2 26  1  0
  3 27  1  0
  3 28  1  0
  5 29  1  0
  6 30  1  0
  7 31  1  0
  7 32  1  0
 11 33  1  0
 11 34  1  0
 12 35  1  0
 12 36  1  0
 14 37  1  0
 14 38  1  0
 17 39  1  0
 18 40  1  0
 19 41  1  0
 20 42  1  0
M  END
>  <Energy>  (160) 
122.34807172676726

>  <compound_id>  (160) 
1510

>  <target_id>  (160) 
1

>  <reference_id>  (160) 
23

>  <inspiration_ids>  (160) 
[8, 23]

>  <energy_score>  (160) 
152.57659794930316

>  <distance_score>  (160) 
3.8483625722460637

>  <path>  (160) 
/opt/xchem-fragalysis-2/maxwin/BulkDock/SCRATCH/505732/C1510-P23/C1510-P23.minimised.mol

>  <scratch_subdir>  (160) 
/opt/xchem-fragalysis-2/maxwin/BulkDock/SCRATCH/505732/C1510-P23

>  <fragmenstein_runtime>  (160) 
15.690368413925171

>  <fragmenstein_outcome>  (160) 
too moved

>  <fragmenstein_mode>  (160) 
expansion

>  <fragmenstein_error>  (160) 


$$$$
C1512-P8
     RDKit          3D

 45 47  0  0  0  0  0  0  0  0999 V2000
   20.8828   -2.7080   18.3935 C   0  0  0  0  0  0  0  0  0  0  0  0
   20.1607   -1.6130   17.6159 C   0  0  0  0  0  0  0  0  0  0  0  0
   20.9468   -0.4186   17.3888 N   0  0  0  0  0  0  0  0  0  0  0  0
   18.9862   -1.9008   17.2815 N   0  0  0  0  0  0  0  0  0  0  0  0
   18.0841   -0.8378   16.4553 S   0  0  0  0  0  0  0  0  0  0  0  0
   18.6594   -0.6717   15.1324 O   0  0  0  0  0  0  0  0  0  0  0  0
   17.8447    0.3146   17.3014 O   0  0  0  0  0  0  0  0  0  0  0  0
   16.4953   -1.7222   16.2108 C   0  0  0  0  0  0  0  0  0  0  0  0
   16.6171   -3.1997   16.6285 C   0  0  0  0  0  0  0  0  0  0  0  0
   16.2713   -3.4793   18.0918 C   0  0  0  0  0  0  0  0  0  0  0  0
   16.1827   -2.2394   18.9665 C   0  0  0  0  0  0  0  0  0  0  0  0
   15.2980   -1.1223   18.4032 C   0  0  0  0  0  0  0  0  0  0  0  0
   15.2731   -0.9964   16.8510 C   0  0  0  0  0  0  0  0  0  0  0  0
   13.9009   -1.4983   16.3579 C   0  0  0  0  0  0  0  0  0  0  0  0
   13.3823   -2.7773   16.2097 C   0  0  0  0  0  0  0  0  0  0  0  0
   12.0770   -2.9402   15.7302 C   0  0  0  0  0  0  0  0  0  0  0  0
   11.2872   -1.8350   15.4087 C   0  0  0  0  0  0  0  0  0  0  0  0
   11.7730   -0.5518   15.6263 C   0  0  0  0  0  0  0  0  0  0  0  0
   13.0710   -0.4038   16.0901 C   0  0  0  0  0  0  0  0  0  0  0  0
   13.6442    0.8261   16.4652 N   0  0  0  0  0  0  0  0  0  0  0  0
   15.0951    0.5375   16.4199 C   0  0  0  0  0  0  0  0  0  0  0  0
   15.5775    0.9209   15.0078 C   0  0  0  0  0  0  0  0  0  0  0  0
   21.7766   -3.0134   17.8418 H   0  0  0  0  0  0  0  0  0  0  0  0
   21.1794   -2.3205   19.3724 H   0  0  0  0  0  0  0  0  0  0  0  0
   20.2380   -3.5801   18.5371 H   0  0  0  0  0  0  0  0  0  0  0  0
   21.8394   -0.4973   17.9225 H   0  0  0  0  0  0  0  0  0  0  0  0
   21.9241   -0.5939   17.7080 H   0  0  0  0  0  0  0  0  0  0  0  0
   16.3715   -1.7247   15.1189 H   0  0  0  0  0  0  0  0  0  0  0  0
   17.6103   -3.6016   16.3978 H   0  0  0  0  0  0  0  0  0  0  0  0
   15.9671   -3.8112   15.9930 H   0  0  0  0  0  0  0  0  0  0  0  0
   15.3180   -4.0166   18.1483 H   0  0  0  0  0  0  0  0  0  0  0  0
   17.0145   -4.1677   18.5128 H   0  0  0  0  0  0  0  0  0  0  0  0
   17.1886   -1.8447   19.1433 H   0  0  0  0  0  0  0  0  0  0  0  0
   15.8112   -2.5218   19.9595 H   0  0  0  0  0  0  0  0  0  0  0  0
   14.2859   -1.2680   18.7945 H   0  0  0  0  0  0  0  0  0  0  0  0
   15.6419   -0.1846   18.8575 H   0  0  0  0  0  0  0  0  0  0  0  0
   13.9373   -3.6699   16.4579 H   0  0  0  0  0  0  0  0  0  0  0  0
   11.6660   -3.9386   15.6086 H   0  0  0  0  0  0  0  0  0  0  0  0
   10.2899   -1.9780   15.0000 H   0  0  0  0  0  0  0  0  0  0  0  0
   11.1529    0.3139   15.4212 H   0  0  0  0  0  0  0  0  0  0  0  0
   13.3349    1.6001   15.8834 H   0  0  0  0  0  0  0  0  0  0  0  0
   15.5807    1.2103   17.1341 H   0  0  0  0  0  0  0  0  0  0  0  0
   15.2020    0.2314   14.2441 H   0  0  0  0  0  0  0  0  0  0  0  0
   15.2235    1.9235   14.7388 H   0  0  0  0  0  0  0  0  0  0  0  0
   16.6637    0.9536   14.9345 H   0  0  0  0  0  0  0  0  0  0  0  0
  1  2  1  0
  2  3  1  0
  2  4  2  3
  4  5  1  0
  5  6  2  0
  5  7  2  0
  5  8  1  0
  8  9  1  0
  9 10  1  0
 10 11  1  0
 11 12  1  0
 12 13  1  0
 13 14  1  0
 14 15  2  0
 15 16  1  0
 16 17  2  0
 17 18  1  0
 18 19  2  0
 19 20  1  0
 20 21  1  0
 21 22  1  0
 13  8  1  0
 19 14  1  0
 21 13  1  0
  1 23  1  0
  1 24  1  0
  1 25  1  0
  3 26  1  0
  3 27  1  0
  8 28  1  0
  9 29  1  0
  9 30  1  0
 10 31  1  0
 10 32  1  0
 11 33  1  0
 11 34  1  0
 12 35  1  0
 12 36  1  0
 15 37  1  0
 16 38  1  0
 17 39  1  0
 18 40  1  0
 20 41  1  0
 21 42  1  0
 22 43  1  0
 22 44  1  0
 22 45  1  0
M  END
>  <Energy>  (161) 
183.05859594165622

>  <compound_id>  (161) 
1512

>  <target_id>  (161) 
1

>  <reference_id>  (161) 
8

>  <inspiration_ids>  (161) 
[8, 27]

>  <energy_score>  (161) 
118.57724622820405

>  <distance_score>  (161) 
3.372887255215527

>  <path>  (161) 
/opt/xchem-fragalysis-2/maxwin/BulkDock/SCRATCH/505732/C1512-P8/C1512-P8.minimised.mol

>  <scratch_subdir>  (161) 
/opt/xchem-fragalysis-2/maxwin/BulkDock/SCRATCH/505732/C1512-P8

>  <fragmenstein_runtime>  (161) 
7.425954103469849

>  <fragmenstein_outcome>  (161) 
too moved

>  <fragmenstein_mode>  (161) 
expansion

>  <fragmenstein_error>  (161) 


$$$$
C1512-P27
     RDKit          3D

 45 47  0  0  0  0  0  0  0  0999 V2000
   14.4240   -0.2002   21.2527 C   0  0  0  0  0  0  0  0  0  0  0  0
   14.6417   -1.5185   20.4489 C   0  0  0  0  0  0  0  0  0  0  0  0
   13.9314   -2.6340   21.0647 N   0  0  0  0  0  0  0  0  0  0  0  0
   15.4104   -1.4852   19.4551 N   0  0  0  0  0  0  0  0  0  0  0  0
   15.9515   -0.1313   18.7696 S   0  0  0  0  0  0  0  0  0  0  0  0
   17.0133    0.4239   19.5901 O   0  0  0  0  0  0  0  0  0  0  0  0
   14.8255    0.7089   18.4134 O   0  0  0  0  0  0  0  0  0  0  0  0
   16.7260   -0.7187   17.2729 C   0  0  0  0  0  0  0  0  0  0  0  0
   17.8338   -1.7578   17.5625 C   0  0  0  0  0  0  0  0  0  0  0  0
   17.5249   -3.1689   17.0956 C   0  0  0  0  0  0  0  0  0  0  0  0
   17.1073   -3.2320   15.6317 C   0  0  0  0  0  0  0  0  0  0  0  0
   16.6422   -1.8899   15.0553 C   0  0  0  0  0  0  0  0  0  0  0  0
   15.8098   -1.0281   16.0558 C   0  0  0  0  0  0  0  0  0  0  0  0
   14.4517   -1.6942   16.1969 C   0  0  0  0  0  0  0  0  0  0  0  0
   14.0396   -2.7889   16.9405 C   0  0  0  0  0  0  0  0  0  0  0  0
   12.7744   -3.3337   16.7018 C   0  0  0  0  0  0  0  0  0  0  0  0
   11.9267   -2.7832   15.7334 C   0  0  0  0  0  0  0  0  0  0  0  0
   12.3144   -1.6498   15.0257 C   0  0  0  0  0  0  0  0  0  0  0  0
   13.5628   -1.1076   15.2830 C   0  0  0  0  0  0  0  0  0  0  0  0
   14.1252   -0.0277   14.5597 N   0  0  0  0  0  0  0  0  0  0  0  0
   15.3118    0.3142   15.3666 C   0  0  0  0  0  0  0  0  0  0  0  0
   16.3166    1.0366   14.4759 C   0  0  0  0  0  0  0  0  0  0  0  0
   15.3782    0.2965   21.4424 H   0  0  0  0  0  0  0  0  0  0  0  0
   13.7626    0.4686   20.7032 H   0  0  0  0  0  0  0  0  0  0  0  0
   13.9898   -0.3772   22.2395 H   0  0  0  0  0  0  0  0  0  0  0  0
   13.4818   -2.2992   21.9528 H   0  0  0  0  0  0  0  0  0  0  0  0
   13.2824   -2.2556   21.8049 H   0  0  0  0  0  0  0  0  0  0  0  0
   17.2982    0.1787   16.9897 H   0  0  0  0  0  0  0  0  0  0  0  0
   18.1021   -1.7825   18.6248 H   0  0  0  0  0  0  0  0  0  0  0  0
   18.7458   -1.4330   17.0418 H   0  0  0  0  0  0  0  0  0  0  0  0
   16.7495   -3.6028   17.7320 H   0  0  0  0  0  0  0  0  0  0  0  0
   18.4056   -3.8056   17.2455 H   0  0  0  0  0  0  0  0  0  0  0  0
   16.3232   -3.9890   15.5135 H   0  0  0  0  0  0  0  0  0  0  0  0
   17.9510   -3.5895   15.0278 H   0  0  0  0  0  0  0  0  0  0  0  0
   17.5420   -1.3323   14.7626 H   0  0  0  0  0  0  0  0  0  0  0  0
   16.0934   -2.0814   14.1239 H   0  0  0  0  0  0  0  0  0  0  0  0
   14.6778   -3.2666   17.6724 H   0  0  0  0  0  0  0  0  0  0  0  0
   12.4619   -4.2184   17.2509 H   0  0  0  0  0  0  0  0  0  0  0  0
   10.9782   -3.2598   15.5046 H   0  0  0  0  0  0  0  0  0  0  0  0
   11.6712   -1.2360   14.2551 H   0  0  0  0  0  0  0  0  0  0  0  0
   13.4502    0.7262   14.4562 H   0  0  0  0  0  0  0  0  0  0  0  0
   14.9856    1.0362   16.1220 H   0  0  0  0  0  0  0  0  0  0  0  0
   16.5730    0.4501   13.5874 H   0  0  0  0  0  0  0  0  0  0  0  0
   15.8914    1.9804   14.1151 H   0  0  0  0  0  0  0  0  0  0  0  0
   17.2378    1.2735   15.0152 H   0  0  0  0  0  0  0  0  0  0  0  0
  1  2  1  0
  2  3  1  0
  2  4  2  3
  4  5  1  0
  5  6  2  0
  5  7  2  0
  5  8  1  0
  8  9  1  0
  9 10  1  0
 10 11  1  0
 11 12  1  0
 12 13  1  0
 13 14  1  0
 14 15  2  0
 15 16  1  0
 16 17  2  0
 17 18  1  0
 18 19  2  0
 19 20  1  0
 20 21  1  0
 21 22  1  0
 13  8  1  0
 19 14  1  0
 21 13  1  0
  1 23  1  0
  1 24  1  0
  1 25  1  0
  3 26  1  0
  3 27  1  0
  8 28  1  0
  9 29  1  0
  9 30  1  0
 10 31  1  0
 10 32  1  0
 11 33  1  0
 11 34  1  0
 12 35  1  0
 12 36  1  0
 15 37  1  0
 16 38  1  0
 17 39  1  0
 18 40  1  0
 20 41  1  0
 21 42  1  0
 22 43  1  0
 22 44  1  0
 22 45  1  0
M  END
>  <Energy>  (162) 
182.43244977731328

>  <compound_id>  (162) 
1512

>  <target_id>  (162) 
1

>  <reference_id>  (162) 
27

>  <inspiration_ids>  (162) 
[8, 27]

>  <energy_score>  (162) 
117.95110006386221

>  <distance_score>  (162) 
2.589580505661977

>  <path>  (162) 
/opt/xchem-fragalysis-2/maxwin/BulkDock/SCRATCH/505732/C1512-P27/C1512-P27.minimised.mol

>  <scratch_subdir>  (162) 
/opt/xchem-fragalysis-2/maxwin/BulkDock/SCRATCH/505732/C1512-P27

>  <fragmenstein_runtime>  (162) 
6.53710412979126

>  <fragmenstein_outcome>  (162) 
too moved

>  <fragmenstein_mode>  (162) 
expansion

>  <fragmenstein_error>  (162) 


$$$$
C1515-P8
     RDKit          3D

 36 38  0  0  0  0  0  0  0  0999 V2000
   15.0607   -4.0354   17.5988 N   0  0  0  0  0  0  0  0  0  0  0  0
   14.8442   -2.6407   17.2902 C   0  0  0  0  0  0  0  0  0  0  0  0
   14.0394   -2.1679   18.3258 O   0  0  0  0  0  0  0  0  0  0  0  0
   14.2051   -2.5064   15.9191 C   0  0  0  0  0  0  0  0  0  0  0  0
   13.4125   -1.1947   15.6642 C   0  0  0  0  0  0  0  0  0  0  0  0
   11.9333   -1.4042   16.0217 C   0  0  0  0  0  0  0  0  0  0  0  0
   11.2302   -2.4836   15.2155 C   0  0  0  0  0  0  0  0  0  0  0  0
   11.8397   -2.7716   13.8741 C   0  0  0  0  0  0  0  0  0  0  0  0
   11.4813   -3.7291   13.2009 O   0  0  0  0  0  0  0  0  0  0  0  0
   12.8401   -1.9718   13.4177 N   0  0  0  0  0  0  0  0  0  0  0  0
   13.3869   -0.8719   14.1587 C   0  0  0  0  0  0  0  0  0  0  0  0
   13.8587   -0.0563   16.4795 N   0  0  0  0  0  0  0  0  0  0  0  0
   15.2384    0.3518   16.2844 C   0  0  0  0  0  0  0  0  0  0  0  0
   16.2170   -0.5510   16.9071 N   0  0  0  0  0  0  0  0  0  0  0  0
   17.5260   -0.1449   17.0550 C   0  0  0  0  0  0  0  0  0  0  0  0
   18.2679   -1.1944   17.5312 C   0  0  0  0  0  0  0  0  0  0  0  0
   17.3861   -2.2729   17.7144 C   0  0  0  0  0  0  0  0  0  0  0  0
   16.1130   -1.8646   17.3350 C   0  0  0  0  0  0  0  0  0  0  0  0
   15.7006   -4.4052   16.8961 H   0  0  0  0  0  0  0  0  0  0  0  0
   15.5741   -4.0707   18.4787 H   0  0  0  0  0  0  0  0  0  0  0  0
   13.6236   -2.9869   18.6514 H   0  0  0  0  0  0  0  0  0  0  0  0
   14.9839   -2.6276   15.1512 H   0  0  0  0  0  0  0  0  0  0  0  0
   13.5351   -3.3634   15.7938 H   0  0  0  0  0  0  0  0  0  0  0  0
   11.3737   -0.4648   15.9089 H   0  0  0  0  0  0  0  0  0  0  0  0
   11.8789   -1.6761   17.0683 H   0  0  0  0  0  0  0  0  0  0  0  0
   11.2530   -3.4245   15.7780 H   0  0  0  0  0  0  0  0  0  0  0  0
   10.1806   -2.2117   15.0693 H   0  0  0  0  0  0  0  0  0  0  0  0
   13.2290   -2.2335   12.5202 H   0  0  0  0  0  0  0  0  0  0  0  0
   14.3898   -0.6942   13.7580 H   0  0  0  0  0  0  0  0  0  0  0  0
   12.7777    0.0131   13.9391 H   0  0  0  0  0  0  0  0  0  0  0  0
   13.7597   -0.3083   17.4718 H   0  0  0  0  0  0  0  0  0  0  0  0
   15.3763    1.3244   16.7714 H   0  0  0  0  0  0  0  0  0  0  0  0
   15.5204    0.4649   15.2335 H   0  0  0  0  0  0  0  0  0  0  0  0
   17.8280    0.8599   16.7870 H   0  0  0  0  0  0  0  0  0  0  0  0
   19.3310   -1.1776   17.7339 H   0  0  0  0  0  0  0  0  0  0  0  0
   17.6614   -3.2517   18.0846 H   0  0  0  0  0  0  0  0  0  0  0  0
  1  2  1  0
  2  3  1  0
  2  4  1  0
  4  5  1  0
  5  6  1  0
  6  7  1  0
  7  8  1  0
  8  9  2  0
  8 10  1  0
 10 11  1  0
  5 12  1  0
 12 13  1  0
 13 14  1  0
 14 15  1  0
 15 16  2  0
 16 17  1  0
 17 18  2  0
 18  2  1  0
 11  5  1  0
 18 14  1  0
  1 19  1  0
  1 20  1  0
  3 21  1  0
  4 22  1  0
  4 23  1  0
  6 24  1  0
  6 25  1  0
  7 26  1  0
  7 27  1  0
 10 28  1  0
 11 29  1  0
 11 30  1  0
 12 31  1  0
 13 32  1  0
 13 33  1  0
 15 34  1  0
 16 35  1  0
 17 36  1  0
M  END
>  <Energy>  (163) 
-43.502199474736706

>  <compound_id>  (163) 
1515

>  <target_id>  (163) 
1

>  <reference_id>  (163) 
8

>  <inspiration_ids>  (163) 
[8, 36]

>  <energy_score>  (163) 
-42.20390194530701

>  <distance_score>  (163) 
1.723671790696724

>  <path>  (163) 
/opt/xchem-fragalysis-2/maxwin/BulkDock/SCRATCH/505732/C1515-P8/C1515-P8.minimised.mol

>  <scratch_subdir>  (163) 
/opt/xchem-fragalysis-2/maxwin/BulkDock/SCRATCH/505732/C1515-P8

>  <fragmenstein_runtime>  (163) 
3.462529182434082

>  <fragmenstein_outcome>  (163) 
too moved

>  <fragmenstein_mode>  (163) 
expansion

>  <fragmenstein_error>  (163) 


$$$$
C1515-P36
     RDKit          3D

 36 38  0  0  0  0  0  0  0  0999 V2000
   14.7295   -3.8644   18.1186 N   0  0  0  0  0  0  0  0  0  0  0  0
   14.5963   -2.4836   17.6957 C   0  0  0  0  0  0  0  0  0  0  0  0
   14.3864   -1.7599   18.8832 O   0  0  0  0  0  0  0  0  0  0  0  0
   13.4056   -2.4029   16.7528 C   0  0  0  0  0  0  0  0  0  0  0  0
   13.1586   -1.0788   15.9664 C   0  0  0  0  0  0  0  0  0  0  0  0
   11.6337   -0.9147   15.7533 C   0  0  0  0  0  0  0  0  0  0  0  0
   11.0331   -2.1682   15.1528 C   0  0  0  0  0  0  0  0  0  0  0  0
   11.8038   -2.6338   13.9577 C   0  0  0  0  0  0  0  0  0  0  0  0
   11.4162   -3.5758   13.2795 O   0  0  0  0  0  0  0  0  0  0  0  0
   12.9757   -2.0145   13.6457 N   0  0  0  0  0  0  0  0  0  0  0  0
   13.7174   -1.1416   14.5226 C   0  0  0  0  0  0  0  0  0  0  0  0
   13.6015    0.0813   16.7406 N   0  0  0  0  0  0  0  0  0  0  0  0
   15.0096    0.4586   16.6633 C   0  0  0  0  0  0  0  0  0  0  0  0
   15.9776   -0.6469   16.6938 N   0  0  0  0  0  0  0  0  0  0  0  0
   17.2737   -0.4555   16.2650 C   0  0  0  0  0  0  0  0  0  0  0  0
   17.9404   -1.6549   16.3138 C   0  0  0  0  0  0  0  0  0  0  0  0
   17.0401   -2.6063   16.8252 C   0  0  0  0  0  0  0  0  0  0  0  0
   15.8427   -1.9605   17.0963 C   0  0  0  0  0  0  0  0  0  0  0  0
   15.4828   -3.9058   18.7989 H   0  0  0  0  0  0  0  0  0  0  0  0
   13.8854   -4.0724   18.6525 H   0  0  0  0  0  0  0  0  0  0  0  0
   15.2503   -1.6917   19.3196 H   0  0  0  0  0  0  0  0  0  0  0  0
   12.5223   -2.6167   17.3655 H   0  0  0  0  0  0  0  0  0  0  0  0
   13.4856   -3.2268   16.0300 H   0  0  0  0  0  0  0  0  0  0  0  0
   11.4319   -0.0585   15.0929 H   0  0  0  0  0  0  0  0  0  0  0  0
   11.1218   -0.6888   16.6838 H   0  0  0  0  0  0  0  0  0  0  0  0
   11.0215   -2.9967   15.8647 H   0  0  0  0  0  0  0  0  0  0  0  0
    9.9957   -1.9708   14.8753 H   0  0  0  0  0  0  0  0  0  0  0  0
   13.4356   -2.3870   12.8221 H   0  0  0  0  0  0  0  0  0  0  0  0
   14.7548   -1.4848   14.4906 H   0  0  0  0  0  0  0  0  0  0  0  0
   13.6914   -0.1524   14.0492 H   0  0  0  0  0  0  0  0  0  0  0  0
   13.0517    0.9081   16.5114 H   0  0  0  0  0  0  0  0  0  0  0  0
   15.2626    1.1049   17.5107 H   0  0  0  0  0  0  0  0  0  0  0  0
   15.1947    1.0146   15.7366 H   0  0  0  0  0  0  0  0  0  0  0  0
   17.6118    0.5186   15.9347 H   0  0  0  0  0  0  0  0  0  0  0  0
   18.9668   -1.8231   16.0146 H   0  0  0  0  0  0  0  0  0  0  0  0
   17.2409   -3.6571   16.9951 H   0  0  0  0  0  0  0  0  0  0  0  0
  1  2  1  0
  2  3  1  0
  2  4  1  0
  4  5  1  0
  5  6  1  0
  6  7  1  0
  7  8  1  0
  8  9  2  0
  8 10  1  0
 10 11  1  0
  5 12  1  0
 12 13  1  0
 13 14  1  0
 14 15  1  0
 15 16  2  0
 16 17  1  0
 17 18  2  0
 18  2  1  0
 11  5  1  0
 18 14  1  0
  1 19  1  0
  1 20  1  0
  3 21  1  0
  4 22  1  0
  4 23  1  0
  6 24  1  0
  6 25  1  0
  7 26  1  0
  7 27  1  0
 10 28  1  0
 11 29  1  0
 11 30  1  0
 12 31  1  0
 13 32  1  0
 13 33  1  0
 15 34  1  0
 16 35  1  0
 17 36  1  0
M  END
>  <Energy>  (164) 
-36.16963690413904

>  <compound_id>  (164) 
1515

>  <target_id>  (164) 
1

>  <reference_id>  (164) 
36

>  <inspiration_ids>  (164) 
[8, 36]

>  <energy_score>  (164) 
-34.87133937470837

>  <distance_score>  (164) 
1.5758819596225624

>  <path>  (164) 
/opt/xchem-fragalysis-2/maxwin/BulkDock/SCRATCH/505732/C1515-P36/C1515-P36.minimised.mol

>  <scratch_subdir>  (164) 
/opt/xchem-fragalysis-2/maxwin/BulkDock/SCRATCH/505732/C1515-P36

>  <fragmenstein_runtime>  (164) 
2.783496379852295

>  <fragmenstein_outcome>  (164) 
too moved

>  <fragmenstein_mode>  (164) 
expansion

>  <fragmenstein_error>  (164) 


$$$$
C1519-P8
     RDKit          3D

 32 33  0  0  0  0  0  0  0  0999 V2000
   16.7317    1.9846   16.8202 C   0  0  0  0  0  0  0  0  0  0  0  0
   15.8535    0.7812   16.7088 C   0  0  0  0  0  0  0  0  0  0  0  0
   14.6105    0.8632   16.3138 N   0  0  0  0  0  0  0  0  0  0  0  0
   14.1648   -0.4289   16.3360 C   0  0  0  0  0  0  0  0  0  0  0  0
   12.9555   -0.9190   16.0654 C   0  0  0  0  0  0  0  0  0  0  0  0
   11.9435   -0.1011   15.7116 F   0  0  0  0  0  0  0  0  0  0  0  0
   12.7016   -2.3433   16.1969 C   0  0  0  0  0  0  0  0  0  0  0  0
   11.4125   -2.7662   15.9920 O   0  0  0  0  0  0  0  0  0  0  0  0
   10.9698   -2.5801   14.6517 C   0  0  0  0  0  0  0  0  0  0  0  0
   11.6396   -3.4584   13.8660 F   0  0  0  0  0  0  0  0  0  0  0  0
   13.6361   -3.2113   16.6201 C   0  0  0  0  0  0  0  0  0  0  0  0
   15.0138   -2.7417   16.9127 C   0  0  0  0  0  0  0  0  0  0  0  0
   15.9260   -3.5069   17.2178 O   0  0  0  0  0  0  0  0  0  0  0  0
   15.2243   -1.2835   16.7792 C   0  0  0  0  0  0  0  0  0  0  0  0
   16.3206   -0.5761   17.0588 C   0  0  0  0  0  0  0  0  0  0  0  0
   17.5973   -0.9873   17.6825 C   0  0  0  0  0  0  0  0  0  0  0  0
   18.7687   -1.2542   16.7432 C   0  0  0  0  0  0  0  0  0  0  0  0
   18.4634   -1.7660   15.3305 C   0  0  0  0  0  0  0  0  0  0  0  0
   17.8083   -3.0546   15.3314 N   0  0  0  0  0  0  0  0  0  0  0  0
   18.8572   -1.0901   14.4203 O   0  0  0  0  0  0  0  0  0  0  0  0
   16.4775    2.7006   16.0334 H   0  0  0  0  0  0  0  0  0  0  0  0
   17.7848    1.7142   16.7175 H   0  0  0  0  0  0  0  0  0  0  0  0
   16.5727    2.4550   17.7943 H   0  0  0  0  0  0  0  0  0  0  0  0
   11.1189   -1.5672   14.2729 H   0  0  0  0  0  0  0  0  0  0  0  0
    9.9093   -2.8242   14.6410 H   0  0  0  0  0  0  0  0  0  0  0  0
   13.4256   -4.2654   16.7465 H   0  0  0  0  0  0  0  0  0  0  0  0
   17.9008   -0.2279   18.4148 H   0  0  0  0  0  0  0  0  0  0  0  0
   17.4353   -1.8847   18.2917 H   0  0  0  0  0  0  0  0  0  0  0  0
   19.3281   -0.3159   16.6245 H   0  0  0  0  0  0  0  0  0  0  0  0
   19.4702   -1.9553   17.2127 H   0  0  0  0  0  0  0  0  0  0  0  0
   17.5045   -3.2818   16.3046 H   0  0  0  0  0  0  0  0  0  0  0  0
   17.7176   -3.3895   16.3149 H   0  0  0  0  0  0  0  0  0  0  0  0
  1  2  1  0
  2  3  2  0
  3  4  1  0
  4  5  2  0
  5  6  1  0
  5  7  1  0
  7  8  1  0
  8  9  1  0
  9 10  1  0
  7 11  2  0
 11 12  1  0
 12 13  2  0
 12 14  1  0
 14 15  2  0
 15 16  1  0
 16 17  1  0
 17 18  1  0
 18 19  1  0
 18 20  2  0
 15  2  1  0
 14  4  1  0
  1 21  1  0
  1 22  1  0
  1 23  1  0
  9 24  1  0
  9 25  1  0
 11 26  1  0
 16 27  1  0
 16 28  1  0
 17 29  1  0
 17 30  1  0
 19 31  1  0
 19 32  1  0
M  END
>  <Energy>  (165) 
184.18207940268485

>  <compound_id>  (165) 
1519

>  <target_id>  (165) 
1

>  <reference_id>  (165) 
8

>  <inspiration_ids>  (165) 
[8, 76]

>  <energy_score>  (165) 
137.71604300923985

>  <distance_score>  (165) 
2.2249779427901153

>  <path>  (165) 
/opt/xchem-fragalysis-2/maxwin/BulkDock/SCRATCH/505732/C1519-P8/C1519-P8.minimised.mol

>  <scratch_subdir>  (165) 
/opt/xchem-fragalysis-2/maxwin/BulkDock/SCRATCH/505732/C1519-P8

>  <fragmenstein_runtime>  (165) 
2.8589067459106445

>  <fragmenstein_outcome>  (165) 
too moved

>  <fragmenstein_mode>  (165) 
expansion

>  <fragmenstein_error>  (165) 


$$$$
C1519-P76
     RDKit          3D

 32 33  0  0  0  0  0  0  0  0999 V2000
   17.1174    2.0293   16.2534 C   0  0  0  0  0  0  0  0  0  0  0  0
   16.2987    0.7804   16.2416 C   0  0  0  0  0  0  0  0  0  0  0  0
   15.5231    0.4594   15.2409 N   0  0  0  0  0  0  0  0  0  0  0  0
   14.9245   -0.7042   15.6349 C   0  0  0  0  0  0  0  0  0  0  0  0
   13.9941   -1.4389   15.0236 C   0  0  0  0  0  0  0  0  0  0  0  0
   13.5660   -1.1205   13.7853 F   0  0  0  0  0  0  0  0  0  0  0  0
   13.4170   -2.5858   15.7088 C   0  0  0  0  0  0  0  0  0  0  0  0
   12.4096   -3.2700   15.0790 O   0  0  0  0  0  0  0  0  0  0  0  0
   11.2733   -2.4981   14.7388 C   0  0  0  0  0  0  0  0  0  0  0  0
   10.7070   -2.0918   15.8979 F   0  0  0  0  0  0  0  0  0  0  0  0
   13.8896   -3.0435   16.8811 C   0  0  0  0  0  0  0  0  0  0  0  0
   14.9773   -2.3176   17.5827 C   0  0  0  0  0  0  0  0  0  0  0  0
   15.4658   -2.7204   18.6354 O   0  0  0  0  0  0  0  0  0  0  0  0
   15.4260   -1.0719   16.9259 C   0  0  0  0  0  0  0  0  0  0  0  0
   16.3001   -0.1689   17.3728 C   0  0  0  0  0  0  0  0  0  0  0  0
   17.0523   -0.0931   18.6456 C   0  0  0  0  0  0  0  0  0  0  0  0
   18.1281   -1.1737   18.7542 C   0  0  0  0  0  0  0  0  0  0  0  0
   18.3140   -1.6122   20.2055 C   0  0  0  0  0  0  0  0  0  0  0  0
   17.2571   -2.5091   20.6322 N   0  0  0  0  0  0  0  0  0  0  0  0
   19.2593   -1.1784   20.8034 O   0  0  0  0  0  0  0  0  0  0  0  0
   17.0815    2.5139   15.2737 H   0  0  0  0  0  0  0  0  0  0  0  0
   18.1578    1.7911   16.4902 H   0  0  0  0  0  0  0  0  0  0  0  0
   16.7212    2.7176   17.0048 H   0  0  0  0  0  0  0  0  0  0  0  0
   10.5786   -3.1662   14.2523 H   0  0  0  0  0  0  0  0  0  0  0  0
   11.4785   -1.6387   14.1000 H   0  0  0  0  0  0  0  0  0  0  0  0
   13.4809   -3.9232   17.3630 H   0  0  0  0  0  0  0  0  0  0  0  0
   17.5225    0.8908   18.7574 H   0  0  0  0  0  0  0  0  0  0  0  0
   16.3367   -0.1588   19.4750 H   0  0  0  0  0  0  0  0  0  0  0  0
   17.9239   -2.0601   18.1427 H   0  0  0  0  0  0  0  0  0  0  0  0
   19.0848   -0.7809   18.3864 H   0  0  0  0  0  0  0  0  0  0  0  0
   16.6672   -2.7613   19.8036 H   0  0  0  0  0  0  0  0  0  0  0  0
   16.5364   -2.5734   19.8744 H   0  0  0  0  0  0  0  0  0  0  0  0
  1  2  1  0
  2  3  2  0
  3  4  1  0
  4  5  2  0
  5  6  1  0
  5  7  1  0
  7  8  1  0
  8  9  1  0
  9 10  1  0
  7 11  2  0
 11 12  1  0
 12 13  2  0
 12 14  1  0
 14 15  2  0
 15 16  1  0
 16 17  1  0
 17 18  1  0
 18 19  1  0
 18 20  2  0
 15  2  1  0
 14  4  1  0
  1 21  1  0
  1 22  1  0
  1 23  1  0
  9 24  1  0
  9 25  1  0
 11 26  1  0
 16 27  1  0
 16 28  1  0
 17 29  1  0
 17 30  1  0
 19 31  1  0
 19 32  1  0
M  END
>  <Energy>  (166) 
176.92717423898804

>  <compound_id>  (166) 
1519

>  <target_id>  (166) 
1

>  <reference_id>  (166) 
76

>  <inspiration_ids>  (166) 
[8, 76]

>  <energy_score>  (166) 
130.46113784554217

>  <distance_score>  (166) 
2.561578667330305

>  <path>  (166) 
/opt/xchem-fragalysis-2/maxwin/BulkDock/SCRATCH/505732/C1519-P76/C1519-P76.minimised.mol

>  <scratch_subdir>  (166) 
/opt/xchem-fragalysis-2/maxwin/BulkDock/SCRATCH/505732/C1519-P76

>  <fragmenstein_runtime>  (166) 
2.9616549015045166

>  <fragmenstein_outcome>  (166) 
too moved

>  <fragmenstein_mode>  (166) 
expansion

>  <fragmenstein_error>  (166) 


$$$$
C1522-P8
     RDKit          3D

 45 46  0  0  0  0  0  0  0  0999 V2000
   18.5440   -4.0689   16.2820 C   0  0  0  0  0  0  0  0  0  0  0  0
   17.5923   -3.3422   17.2373 C   0  0  0  0  0  0  0  0  0  0  0  0
   17.4984   -4.1098   18.5661 C   0  0  0  0  0  0  0  0  0  0  0  0
   16.2485   -4.7899   18.6346 O   0  0  0  0  0  0  0  0  0  0  0  0
   18.0552   -1.8800   17.4315 C   0  0  0  0  0  0  0  0  0  0  0  0
   17.0589   -0.9696   18.1786 C   0  0  0  0  0  0  0  0  0  0  0  0
   15.7902   -0.8724   17.4725 N   0  0  0  0  0  0  0  0  0  0  0  0
   15.6387    0.0247   16.4492 C   0  0  0  0  0  0  0  0  0  0  0  0
   14.6539    0.0345   15.6191 N   0  0  0  0  0  0  0  0  0  0  0  0
   13.7063   -1.0023   15.6897 C   0  0  0  0  0  0  0  0  0  0  0  0
   12.7555   -1.1899   14.6628 C   0  0  0  0  0  0  0  0  0  0  0  0
   12.6706   -0.4730   13.4396 N   0  0  0  0  0  0  0  0  0  0  0  0
   13.2425    0.8844   13.2890 C   0  0  0  0  0  0  0  0  0  0  0  0
   12.3565    1.9079   13.9830 C   0  0  0  0  0  0  0  0  0  0  0  0
   11.0709    2.1783   13.1923 C   0  0  0  0  0  0  0  0  0  0  0  0
   10.3765    0.9506   12.8831 N   0  0  0  0  0  0  0  0  0  0  0  0
   10.7802    3.3191   12.9611 O   0  0  0  0  0  0  0  0  0  0  0  0
   11.9018   -2.3091   14.7431 C   0  0  0  0  0  0  0  0  0  0  0  0
   11.9436   -3.1983   15.8127 C   0  0  0  0  0  0  0  0  0  0  0  0
   12.8641   -3.0071   16.8249 C   0  0  0  0  0  0  0  0  0  0  0  0
   13.7335   -1.9174   16.7531 C   0  0  0  0  0  0  0  0  0  0  0  0
   14.7975   -1.7901   17.7588 C   0  0  0  0  0  0  0  0  0  0  0  0
   14.8020   -2.5241   18.7444 O   0  0  0  0  0  0  0  0  0  0  0  0
   18.5738   -3.5692   15.3078 H   0  0  0  0  0  0  0  0  0  0  0  0
   19.5642   -4.0953   16.6798 H   0  0  0  0  0  0  0  0  0  0  0  0
   18.2148   -5.1005   16.1164 H   0  0  0  0  0  0  0  0  0  0  0  0
   16.6190   -3.3470   16.7353 H   0  0  0  0  0  0  0  0  0  0  0  0
   17.5734   -3.4601   19.4427 H   0  0  0  0  0  0  0  0  0  0  0  0
   18.2874   -4.8634   18.6569 H   0  0  0  0  0  0  0  0  0  0  0  0
   15.5793   -4.0994   18.8385 H   0  0  0  0  0  0  0  0  0  0  0  0
   19.0104   -1.8692   17.9716 H   0  0  0  0  0  0  0  0  0  0  0  0
   18.2505   -1.4381   16.4455 H   0  0  0  0  0  0  0  0  0  0  0  0
   16.8931   -1.3278   19.1994 H   0  0  0  0  0  0  0  0  0  0  0  0
   17.4931    0.0345   18.2533 H   0  0  0  0  0  0  0  0  0  0  0  0
   16.4359    0.7819   16.3753 H   0  0  0  0  0  0  0  0  0  0  0  0
   13.1782   -1.0772   12.7753 H   0  0  0  0  0  0  0  0  0  0  0  0
   14.2881    0.9467   13.5915 H   0  0  0  0  0  0  0  0  0  0  0  0
   13.2527    1.1023   12.2128 H   0  0  0  0  0  0  0  0  0  0  0  0
   12.0827    1.6131   15.0017 H   0  0  0  0  0  0  0  0  0  0  0  0
   12.9048    2.8554   14.0497 H   0  0  0  0  0  0  0  0  0  0  0  0
   10.8759    0.1479   13.3468 H   0  0  0  0  0  0  0  0  0  0  0  0
   10.9931    0.1339   13.1369 H   0  0  0  0  0  0  0  0  0  0  0  0
   11.2015   -2.5174   13.9373 H   0  0  0  0  0  0  0  0  0  0  0  0
   11.2843   -4.0605   15.8301 H   0  0  0  0  0  0  0  0  0  0  0  0
   12.9235   -3.7208   17.6445 H   0  0  0  0  0  0  0  0  0  0  0  0
  1  2  1  0
  2  3  1  0
  3  4  1  0
  2  5  1  0
  5  6  1  0
  6  7  1  0
  7  8  1  0
  8  9  2  0
  9 10  1  0
 10 11  2  0
 11 12  1  0
 12 13  1  0
 13 14  1  0
 14 15  1  0
 15 16  1  0
 15 17  2  0
 11 18  1  0
 18 19  2  0
 19 20  1  0
 20 21  2  0
 21 22  1  0
 22 23  2  0
 22  7  1  0
 21 10  1  0
  1 24  1  0
  1 25  1  0
  1 26  1  0
  2 27  1  0
  3 28  1  0
  3 29  1  0
  4 30  1  0
  5 31  1  0
  5 32  1  0
  6 33  1  0
  6 34  1  0
  8 35  1  0
 12 36  1  0
 13 37  1  0
 13 38  1  0
 14 39  1  0
 14 40  1  0
 16 41  1  0
 16 42  1  0
 18 43  1  0
 19 44  1  0
 20 45  1  0
M  END
>  <Energy>  (167) 
158.62878412791915

>  <compound_id>  (167) 
1522

>  <target_id>  (167) 
1

>  <reference_id>  (167) 
8

>  <inspiration_ids>  (167) 
[8, 86]

>  <energy_score>  (167) 
127.43833508353447

>  <distance_score>  (167) 
1.319758598341548

>  <path>  (167) 
/opt/xchem-fragalysis-2/maxwin/BulkDock/SCRATCH/505732/C1522-P8/C1522-P8.minimised.mol

>  <scratch_subdir>  (167) 
/opt/xchem-fragalysis-2/maxwin/BulkDock/SCRATCH/505732/C1522-P8

>  <fragmenstein_runtime>  (167) 
3.7035865783691406

>  <fragmenstein_outcome>  (167) 
too moved

>  <fragmenstein_mode>  (167) 
expansion

>  <fragmenstein_error>  (167) 


$$$$
C1522-P86
     RDKit          3D

 45 46  0  0  0  0  0  0  0  0999 V2000
   18.9240   -3.8753   16.3204 C   0  0  0  0  0  0  0  0  0  0  0  0
   17.9058   -3.3974   17.3605 C   0  0  0  0  0  0  0  0  0  0  0  0
   17.9377   -4.3099   18.5937 C   0  0  0  0  0  0  0  0  0  0  0  0
   19.1864   -4.1897   19.2640 O   0  0  0  0  0  0  0  0  0  0  0  0
   18.1808   -1.9162   17.7091 C   0  0  0  0  0  0  0  0  0  0  0  0
   17.0882   -1.2382   18.5547 C   0  0  0  0  0  0  0  0  0  0  0  0
   15.8460   -1.1294   17.8039 N   0  0  0  0  0  0  0  0  0  0  0  0
   15.7322   -0.1601   16.8402 C   0  0  0  0  0  0  0  0  0  0  0  0
   14.8253   -0.1301   15.9292 N   0  0  0  0  0  0  0  0  0  0  0  0
   13.8914   -1.1857   15.8920 C   0  0  0  0  0  0  0  0  0  0  0  0
   12.9808   -1.2868   14.8184 C   0  0  0  0  0  0  0  0  0  0  0  0
   13.0474   -0.4134   13.6999 N   0  0  0  0  0  0  0  0  0  0  0  0
   13.9497   -0.8836   12.6228 C   0  0  0  0  0  0  0  0  0  0  0  0
   15.4289   -0.7726   12.9640 C   0  0  0  0  0  0  0  0  0  0  0  0
   16.3182   -0.9936   11.7360 C   0  0  0  0  0  0  0  0  0  0  0  0
   17.7116   -0.9637   12.1467 N   0  0  0  0  0  0  0  0  0  0  0  0
   15.8278   -1.1360   10.6521 O   0  0  0  0  0  0  0  0  0  0  0  0
   12.0506   -2.3378   14.8093 C   0  0  0  0  0  0  0  0  0  0  0  0
   12.0067   -3.2706   15.8429 C   0  0  0  0  0  0  0  0  0  0  0  0
   12.9162   -3.1929   16.8857 C   0  0  0  0  0  0  0  0  0  0  0  0
   13.8513   -2.1563   16.8978 C   0  0  0  0  0  0  0  0  0  0  0  0
   14.8898   -2.1220   17.9380 C   0  0  0  0  0  0  0  0  0  0  0  0
   14.9027   -2.9823   18.8135 O   0  0  0  0  0  0  0  0  0  0  0  0
   18.7438   -4.9215   16.0510 H   0  0  0  0  0  0  0  0  0  0  0  0
   18.8490   -3.2801   15.4038 H   0  0  0  0  0  0  0  0  0  0  0  0
   19.9506   -3.7918   16.6927 H   0  0  0  0  0  0  0  0  0  0  0  0
   16.9213   -3.4909   16.8904 H   0  0  0  0  0  0  0  0  0  0  0  0
   17.8021   -5.3564   18.2994 H   0  0  0  0  0  0  0  0  0  0  0  0
   17.1484   -4.0565   19.3046 H   0  0  0  0  0  0  0  0  0  0  0  0
   19.1671   -4.8209   20.0050 H   0  0  0  0  0  0  0  0  0  0  0  0
   19.1354   -1.8313   18.2430 H   0  0  0  0  0  0  0  0  0  0  0  0
   18.3052   -1.3502   16.7764 H   0  0  0  0  0  0  0  0  0  0  0  0
   16.9257   -1.7739   19.4948 H   0  0  0  0  0  0  0  0  0  0  0  0
   17.4222   -0.2251   18.8090 H   0  0  0  0  0  0  0  0  0  0  0  0
   16.5009    0.6283   16.8849 H   0  0  0  0  0  0  0  0  0  0  0  0
   12.1054   -0.3472   13.3094 H   0  0  0  0  0  0  0  0  0  0  0  0
   13.7005   -1.9114   12.3303 H   0  0  0  0  0  0  0  0  0  0  0  0
   13.7448   -0.2484   11.7532 H   0  0  0  0  0  0  0  0  0  0  0  0
   15.6494    0.2255   13.3601 H   0  0  0  0  0  0  0  0  0  0  0  0
   15.6963   -1.5254   13.7137 H   0  0  0  0  0  0  0  0  0  0  0  0
   17.7588   -0.9394   13.1823 H   0  0  0  0  0  0  0  0  0  0  0  0
   17.7635   -0.7040   13.1493 H   0  0  0  0  0  0  0  0  0  0  0  0
   11.3625   -2.4526   13.9769 H   0  0  0  0  0  0  0  0  0  0  0  0
   11.2846   -4.0798   15.8099 H   0  0  0  0  0  0  0  0  0  0  0  0
   12.9036   -3.9414   17.6754 H   0  0  0  0  0  0  0  0  0  0  0  0
  1  2  1  0
  2  3  1  0
  3  4  1  0
  2  5  1  0
  5  6  1  0
  6  7  1  0
  7  8  1  0
  8  9  2  0
  9 10  1  0
 10 11  2  0
 11 12  1  0
 12 13  1  0
 13 14  1  0
 14 15  1  0
 15 16  1  0
 15 17  2  0
 11 18  1  0
 18 19  2  0
 19 20  1  0
 20 21  2  0
 21 22  1  0
 22 23  2  0
 22  7  1  0
 21 10  1  0
  1 24  1  0
  1 25  1  0
  1 26  1  0
  2 27  1  0
  3 28  1  0
  3 29  1  0
  4 30  1  0
  5 31  1  0
  5 32  1  0
  6 33  1  0
  6 34  1  0
  8 35  1  0
 12 36  1  0
 13 37  1  0
 13 38  1  0
 14 39  1  0
 14 40  1  0
 16 41  1  0
 16 42  1  0
 18 43  1  0
 19 44  1  0
 20 45  1  0
M  END
>  <Energy>  (168) 
168.54670811914326

>  <compound_id>  (168) 
1522

>  <target_id>  (168) 
1

>  <reference_id>  (168) 
86

>  <inspiration_ids>  (168) 
[8, 86]

>  <energy_score>  (168) 
137.35625907476015

>  <distance_score>  (168) 
1.3346849322922425

>  <path>  (168) 
/opt/xchem-fragalysis-2/maxwin/BulkDock/SCRATCH/505732/C1522-P86/C1522-P86.minimised.mol

>  <scratch_subdir>  (168) 
/opt/xchem-fragalysis-2/maxwin/BulkDock/SCRATCH/505732/C1522-P86

>  <fragmenstein_runtime>  (168) 
4.008581161499023

>  <fragmenstein_outcome>  (168) 
too moved

>  <fragmenstein_mode>  (168) 
expansion

>  <fragmenstein_error>  (168) 


$$$$
C1523-P8
     RDKit          3D

 35 36  0  0  0  0  0  0  0  0999 V2000
   15.5719    1.6392   16.3088 C   0  0  0  0  0  0  0  0  0  0  0  0
   14.6586    0.4719   16.1257 C   0  0  0  0  0  0  0  0  0  0  0  0
   13.6213    0.2827   15.2226 C   0  0  0  0  0  0  0  0  0  0  0  0
   13.2384    1.1839   14.0864 C   0  0  0  0  0  0  0  0  0  0  0  0
   13.7979    0.6923   12.7512 C   0  0  0  0  0  0  0  0  0  0  0  0
   15.2868    0.6165   12.7511 C   0  0  0  0  0  0  0  0  0  0  0  0
   16.1513    0.1514   13.2093 N   0  0  0  0  0  0  0  0  0  0  0  0
   15.9638    1.5907   11.6524 O   0  0  0  0  0  0  0  0  0  0  0  0
   13.0349   -0.9886   15.5022 C   0  0  0  0  0  0  0  0  0  0  0  0
   11.9558   -1.7008   14.9440 C   0  0  0  0  0  0  0  0  0  0  0  0
   11.6709   -2.9867   15.4014 C   0  0  0  0  0  0  0  0  0  0  0  0
   12.4420   -3.5682   16.4007 C   0  0  0  0  0  0  0  0  0  0  0  0
   13.5167   -2.8850   16.9714 C   0  0  0  0  0  0  0  0  0  0  0  0
   13.7954   -1.5910   16.5032 C   0  0  0  0  0  0  0  0  0  0  0  0
   14.8093   -0.7087   16.8240 N   0  0  0  0  0  0  0  0  0  0  0  0
   15.9447   -1.0572   17.6683 C   0  0  0  0  0  0  0  0  0  0  0  0
   16.9442   -1.9270   16.9484 C   0  0  0  0  0  0  0  0  0  0  0  0
   17.6236   -2.7964   17.4741 O   0  0  0  0  0  0  0  0  0  0  0  0
   17.1204   -1.6495   15.6343 O   0  0  0  0  0  0  0  0  0  0  0  0
   15.5512    1.9796   17.3492 H   0  0  0  0  0  0  0  0  0  0  0  0
   15.2814    2.4869   15.6828 H   0  0  0  0  0  0  0  0  0  0  0  0
   16.6003    1.3705   16.0474 H   0  0  0  0  0  0  0  0  0  0  0  0
   12.1447    1.2374   14.0201 H   0  0  0  0  0  0  0  0  0  0  0  0
   13.5827    2.2063   14.2764 H   0  0  0  0  0  0  0  0  0  0  0  0
   13.4224   -0.3090   12.5166 H   0  0  0  0  0  0  0  0  0  0  0  0
   13.4748    1.3607   11.9461 H   0  0  0  0  0  0  0  0  0  0  0  0
   16.6450   -0.4238   13.8913 H   0  0  0  0  0  0  0  0  0  0  0  0
   15.6240   -0.5236   13.7833 H   0  0  0  0  0  0  0  0  0  0  0  0
   11.3514   -1.2693   14.1503 H   0  0  0  0  0  0  0  0  0  0  0  0
   10.8472   -3.5411   14.9576 H   0  0  0  0  0  0  0  0  0  0  0  0
   12.2077   -4.5761   16.7346 H   0  0  0  0  0  0  0  0  0  0  0  0
   14.1105   -3.3592   17.7465 H   0  0  0  0  0  0  0  0  0  0  0  0
   15.5527   -1.5903   18.5403 H   0  0  0  0  0  0  0  0  0  0  0  0
   16.4397   -0.1478   18.0162 H   0  0  0  0  0  0  0  0  0  0  0  0
   17.7989   -2.3101   15.3626 H   0  0  0  0  0  0  0  0  0  0  0  0
  1  2  1  0
  2  3  2  0
  3  4  1  0
  4  5  1  0
  5  6  1  0
  6  7  1  0
  6  8  2  0
  3  9  1  0
  9 10  2  0
 10 11  1  0
 11 12  2  0
 12 13  1  0
 13 14  2  0
 14 15  1  0
 15 16  1  0
 16 17  1  0
 17 18  2  0
 17 19  1  0
 15  2  1  0
 14  9  1  0
  1 20  1  0
  1 21  1  0
  1 22  1  0
  4 23  1  0
  4 24  1  0
  5 25  1  0
  5 26  1  0
  7 27  1  0
  7 28  1  0
 10 29  1  0
 11 30  1  0
 12 31  1  0
 13 32  1  0
 16 33  1  0
 16 34  1  0
 19 35  1  0
M  END
>  <Energy>  (169) 
177.39158267201483

>  <compound_id>  (169) 
1523

>  <target_id>  (169) 
1

>  <reference_id>  (169) 
8

>  <inspiration_ids>  (169) 
[8, 97]

>  <energy_score>  (169) 
160.78177585610942

>  <distance_score>  (169) 
1.113874846138484

>  <path>  (169) 
/opt/xchem-fragalysis-2/maxwin/BulkDock/SCRATCH/505732/C1523-P8/C1523-P8.minimised.mol

>  <scratch_subdir>  (169) 
/opt/xchem-fragalysis-2/maxwin/BulkDock/SCRATCH/505732/C1523-P8

>  <fragmenstein_runtime>  (169) 
3.783682107925415

>  <fragmenstein_outcome>  (169) 
too moved

>  <fragmenstein_mode>  (169) 
expansion

>  <fragmenstein_error>  (169) 


$$$$
C1523-P97
     RDKit          3D

 35 36  0  0  0  0  0  0  0  0999 V2000
   15.2855    2.0772   16.5841 C   0  0  0  0  0  0  0  0  0  0  0  0
   14.8321    0.6703   16.7922 C   0  0  0  0  0  0  0  0  0  0  0  0
   13.8123   -0.0322   16.1540 C   0  0  0  0  0  0  0  0  0  0  0  0
   12.9830    0.5677   15.0406 C   0  0  0  0  0  0  0  0  0  0  0  0
   12.0306   -0.3438   14.2839 C   0  0  0  0  0  0  0  0  0  0  0  0
   12.7631   -1.4874   13.5722 C   0  0  0  0  0  0  0  0  0  0  0  0
   11.8447   -2.5836   13.3464 N   0  0  0  0  0  0  0  0  0  0  0  0
   13.9388   -1.3996   13.3626 O   0  0  0  0  0  0  0  0  0  0  0  0
   13.8011   -1.3568   16.7249 C   0  0  0  0  0  0  0  0  0  0  0  0
   13.0232   -2.5270   16.5550 C   0  0  0  0  0  0  0  0  0  0  0  0
   13.3263   -3.7074   17.2404 C   0  0  0  0  0  0  0  0  0  0  0  0
   14.3861   -3.7432   18.1288 C   0  0  0  0  0  0  0  0  0  0  0  0
   15.1620   -2.6052   18.3480 C   0  0  0  0  0  0  0  0  0  0  0  0
   14.8547   -1.4266   17.6409 C   0  0  0  0  0  0  0  0  0  0  0  0
   15.4624   -0.1880   17.6646 N   0  0  0  0  0  0  0  0  0  0  0  0
   16.6041    0.1335   18.5083 C   0  0  0  0  0  0  0  0  0  0  0  0
   17.8833   -0.4564   17.9880 C   0  0  0  0  0  0  0  0  0  0  0  0
   18.5405   -1.3319   18.5308 O   0  0  0  0  0  0  0  0  0  0  0  0
   18.3092    0.0996   16.8360 O   0  0  0  0  0  0  0  0  0  0  0  0
   15.2023    2.6481   17.5146 H   0  0  0  0  0  0  0  0  0  0  0  0
   14.6805    2.5925   15.8326 H   0  0  0  0  0  0  0  0  0  0  0  0
   16.3257    2.1032   16.2451 H   0  0  0  0  0  0  0  0  0  0  0  0
   12.3931    1.3869   15.4730 H   0  0  0  0  0  0  0  0  0  0  0  0
   13.6679    1.0294   14.3164 H   0  0  0  0  0  0  0  0  0  0  0  0
   11.2733   -0.7222   14.9788 H   0  0  0  0  0  0  0  0  0  0  0  0
   11.5084    0.2358   13.5131 H   0  0  0  0  0  0  0  0  0  0  0  0
   10.8704   -2.2578   13.5399 H   0  0  0  0  0  0  0  0  0  0  0  0
   10.9186   -2.3419   13.7582 H   0  0  0  0  0  0  0  0  0  0  0  0
   12.1694   -2.5541   15.8965 H   0  0  0  0  0  0  0  0  0  0  0  0
   12.7182   -4.5930   17.0764 H   0  0  0  0  0  0  0  0  0  0  0  0
   14.6169   -4.6581   18.6671 H   0  0  0  0  0  0  0  0  0  0  0  0
   15.9923   -2.6497   19.0473 H   0  0  0  0  0  0  0  0  0  0  0  0
   16.4008   -0.2567   19.5115 H   0  0  0  0  0  0  0  0  0  0  0  0
   16.7124    1.2166   18.6064 H   0  0  0  0  0  0  0  0  0  0  0  0
   19.0911   -0.4336   16.5790 H   0  0  0  0  0  0  0  0  0  0  0  0
  1  2  1  0
  2  3  2  0
  3  4  1  0
  4  5  1  0
  5  6  1  0
  6  7  1  0
  6  8  2  0
  3  9  1  0
  9 10  2  0
 10 11  1  0
 11 12  2  0
 12 13  1  0
 13 14  2  0
 14 15  1  0
 15 16  1  0
 16 17  1  0
 17 18  2  0
 17 19  1  0
 15  2  1  0
 14  9  1  0
  1 20  1  0
  1 21  1  0
  1 22  1  0
  4 23  1  0
  4 24  1  0
  5 25  1  0
  5 26  1  0
  7 27  1  0
  7 28  1  0
 10 29  1  0
 11 30  1  0
 12 31  1  0
 13 32  1  0
 16 33  1  0
 16 34  1  0
 19 35  1  0
M  END
>  <Energy>  (170) 
177.5434490991781

>  <compound_id>  (170) 
1523

>  <target_id>  (170) 
1

>  <reference_id>  (170) 
97

>  <inspiration_ids>  (170) 
[8, 97]

>  <energy_score>  (170) 
160.93364228327215

>  <distance_score>  (170) 
1.9242637702951695

>  <path>  (170) 
/opt/xchem-fragalysis-2/maxwin/BulkDock/SCRATCH/505732/C1523-P97/C1523-P97.minimised.mol

>  <scratch_subdir>  (170) 
/opt/xchem-fragalysis-2/maxwin/BulkDock/SCRATCH/505732/C1523-P97

>  <fragmenstein_runtime>  (170) 
1.8012316226959229

>  <fragmenstein_outcome>  (170) 
too moved

>  <fragmenstein_mode>  (170) 
expansion

>  <fragmenstein_error>  (170) 


$$$$
C1524-P8
     RDKit          3D

 49 52  0  0  0  0  0  0  0  0999 V2000
   17.1857   -2.1625   16.0283 N   0  0  0  0  0  0  0  0  0  0  0  0
   17.2562   -2.6830   17.3729 C   0  0  0  0  0  0  0  0  0  0  0  0
   18.0789   -3.3801   17.8991 O   0  0  0  0  0  0  0  0  0  0  0  0
   15.9996   -2.3308   18.1702 C   0  0  0  0  0  0  0  0  0  0  0  0
   15.6522   -0.8458   18.1571 C   0  0  0  0  0  0  0  0  0  0  0  0
   15.1739   -0.4508   16.7983 N   0  0  0  0  0  0  0  0  0  0  0  0
   15.6763    0.8023   16.3247 C   0  0  0  0  0  0  0  0  0  0  0  0
   16.9722    1.2859   16.4665 C   0  0  0  0  0  0  0  0  0  0  0  0
   17.3172    2.5100   15.8885 C   0  0  0  0  0  0  0  0  0  0  0  0
   16.3775    3.2327   15.1506 C   0  0  0  0  0  0  0  0  0  0  0  0
   15.0887    2.7316   14.9733 C   0  0  0  0  0  0  0  0  0  0  0  0
   14.7468    1.5149   15.5599 C   0  0  0  0  0  0  0  0  0  0  0  0
   13.4415    0.7422   15.4563 C   0  0  0  0  0  0  0  0  0  0  0  0
   12.2195    1.6852   15.6770 C   0  0  0  0  0  0  0  0  0  0  0  0
   10.9571    1.2651   14.9210 C   0  0  0  0  0  0  0  0  0  0  0  0
   11.1947    1.1289   13.4116 C   0  0  0  0  0  0  0  0  0  0  0  0
   10.7438    2.2986   12.7300 O   0  0  0  0  0  0  0  0  0  0  0  0
   12.6674    0.9024   13.0617 C   0  0  0  0  0  0  0  0  0  0  0  0
   13.3870    0.0049   14.0803 C   0  0  0  0  0  0  0  0  0  0  0  0
   12.7548   -1.4035   14.0978 C   0  0  0  0  0  0  0  0  0  0  0  0
   13.2037   -2.2555   15.2682 C   0  0  0  0  0  0  0  0  0  0  0  0
   12.9296   -1.5349   16.5687 C   0  0  0  0  0  0  0  0  0  0  0  0
   13.6864   -0.2176   16.6711 C   0  0  0  0  0  0  0  0  0  0  0  0
   16.2604   -1.6876   15.8939 H   0  0  0  0  0  0  0  0  0  0  0  0
   16.3812   -1.4925   15.9630 H   0  0  0  0  0  0  0  0  0  0  0  0
   15.1840   -2.9527   17.7894 H   0  0  0  0  0  0  0  0  0  0  0  0
   16.1750   -2.6326   19.2104 H   0  0  0  0  0  0  0  0  0  0  0  0
   14.8688   -0.6551   18.9007 H   0  0  0  0  0  0  0  0  0  0  0  0
   16.5276   -0.2755   18.4835 H   0  0  0  0  0  0  0  0  0  0  0  0
   17.7391    0.7268   16.9933 H   0  0  0  0  0  0  0  0  0  0  0  0
   18.3286    2.8933   15.9994 H   0  0  0  0  0  0  0  0  0  0  0  0
   16.6581    4.1796   14.6958 H   0  0  0  0  0  0  0  0  0  0  0  0
   14.3803    3.2913   14.3705 H   0  0  0  0  0  0  0  0  0  0  0  0
   11.9895    1.7831   16.7422 H   0  0  0  0  0  0  0  0  0  0  0  0
   12.4480    2.7073   15.3517 H   0  0  0  0  0  0  0  0  0  0  0  0
   10.6143    0.3066   15.3270 H   0  0  0  0  0  0  0  0  0  0  0  0
   10.1589    1.9901   15.1190 H   0  0  0  0  0  0  0  0  0  0  0  0
   10.5935    0.2986   13.0370 H   0  0  0  0  0  0  0  0  0  0  0  0
    9.8697    2.0759   12.3434 H   0  0  0  0  0  0  0  0  0  0  0  0
   13.1780    1.8696   12.9823 H   0  0  0  0  0  0  0  0  0  0  0  0
   12.7567    0.4852   12.0571 H   0  0  0  0  0  0  0  0  0  0  0  0
   14.4147   -0.1384   13.7150 H   0  0  0  0  0  0  0  0  0  0  0  0
   13.0050   -1.9196   13.1627 H   0  0  0  0  0  0  0  0  0  0  0  0
   11.6627   -1.3534   14.1250 H   0  0  0  0  0  0  0  0  0  0  0  0
   14.2656   -2.5008   15.1740 H   0  0  0  0  0  0  0  0  0  0  0  0
   12.6498   -3.2007   15.2614 H   0  0  0  0  0  0  0  0  0  0  0  0
   11.8565   -1.3288   16.6298 H   0  0  0  0  0  0  0  0  0  0  0  0
   13.1678   -2.1936   17.4080 H   0  0  0  0  0  0  0  0  0  0  0  0
   13.3612    0.2876   17.5917 H   0  0  0  0  0  0  0  0  0  0  0  0
  1  2  1  0
  2  3  2  0
  2  4  1  0
  4  5  1  0
  5  6  1  0
  6  7  1  0
  7  8  2  0
  8  9  1  0
  9 10  2  0
 10 11  1  0
 11 12  2  0
 12 13  1  0
 13 14  1  0
 14 15  1  0
 15 16  1  0
 16 17  1  0
 16 18  1  0
 18 19  1  0
 19 20  1  0
 20 21  1  0
 21 22  1  0
 22 23  1  0
 23  6  1  0
 12  7  1  0
 19 13  1  0
 23 13  1  0
  1 24  1  0
  1 25  1  0
  4 26  1  0
  4 27  1  0
  5 28  1  0
  5 29  1  0
  8 30  1  0
  9 31  1  0
 10 32  1  0
 11 33  1  0
 14 34  1  0
 14 35  1  0
 15 36  1  0
 15 37  1  0
 16 38  1  0
 17 39  1  0
 18 40  1  0
 18 41  1  0
 19 42  1  0
 20 43  1  0
 20 44  1  0
 21 45  1  0
 21 46  1  0
 22 47  1  0
 22 48  1  0
 23 49  1  0
M  END
>  <Energy>  (171) 
206.28735979926219

>  <compound_id>  (171) 
1524

>  <target_id>  (171) 
1

>  <reference_id>  (171) 
8

>  <inspiration_ids>  (171) 
[8, 98]

>  <energy_score>  (171) 
103.7275701973382

>  <distance_score>  (171) 
2.4512468304916757

>  <path>  (171) 
/opt/xchem-fragalysis-2/maxwin/BulkDock/SCRATCH/505732/C1524-P8/C1524-P8.minimised.mol

>  <scratch_subdir>  (171) 
/opt/xchem-fragalysis-2/maxwin/BulkDock/SCRATCH/505732/C1524-P8

>  <fragmenstein_runtime>  (171) 
6.538121938705444

>  <fragmenstein_outcome>  (171) 
too moved

>  <fragmenstein_mode>  (171) 
expansion

>  <fragmenstein_error>  (171) 


$$$$
C1524-P98
     RDKit          3D

 49 52  0  0  0  0  0  0  0  0999 V2000
   17.2725   -1.2369   19.1874 N   0  0  0  0  0  0  0  0  0  0  0  0
   17.3424    0.0635   19.8113 C   0  0  0  0  0  0  0  0  0  0  0  0
   17.7038    0.3852   20.9096 O   0  0  0  0  0  0  0  0  0  0  0  0
   16.9755    1.1787   18.8277 C   0  0  0  0  0  0  0  0  0  0  0  0
   15.7024    0.9391   18.0247 C   0  0  0  0  0  0  0  0  0  0  0  0
   15.7889   -0.2971   17.1915 N   0  0  0  0  0  0  0  0  0  0  0  0
   16.3095   -0.0470   15.8837 C   0  0  0  0  0  0  0  0  0  0  0  0
   17.6250    0.2801   15.5871 C   0  0  0  0  0  0  0  0  0  0  0  0
   18.0033    0.4439   14.2520 C   0  0  0  0  0  0  0  0  0  0  0  0
   17.0698    0.2762   13.2251 C   0  0  0  0  0  0  0  0  0  0  0  0
   15.7490   -0.0564   13.5230 C   0  0  0  0  0  0  0  0  0  0  0  0
   15.3798   -0.2193   14.8545 C   0  0  0  0  0  0  0  0  0  0  0  0
   14.0092   -0.5069   15.4267 C   0  0  0  0  0  0  0  0  0  0  0  0
   13.2274    0.8411   15.4089 C   0  0  0  0  0  0  0  0  0  0  0  0
   11.7133    0.6748   15.4054 C   0  0  0  0  0  0  0  0  0  0  0  0
   11.2076   -0.1810   14.2492 C   0  0  0  0  0  0  0  0  0  0  0  0
   10.7020    0.6688   13.2260 O   0  0  0  0  0  0  0  0  0  0  0  0
   12.2824   -1.0879   13.6510 C   0  0  0  0  0  0  0  0  0  0  0  0
   13.2502   -1.6495   14.6963 C   0  0  0  0  0  0  0  0  0  0  0  0
   12.4914   -2.5735   15.6672 C   0  0  0  0  0  0  0  0  0  0  0  0
   13.3966   -3.2564   16.6802 C   0  0  0  0  0  0  0  0  0  0  0  0
   14.6420   -2.4535   17.0158 C   0  0  0  0  0  0  0  0  0  0  0  0
   14.4509   -0.9279   16.8718 C   0  0  0  0  0  0  0  0  0  0  0  0
   16.7935   -1.1447   18.2573 H   0  0  0  0  0  0  0  0  0  0  0  0
   17.0176   -1.1175   18.1761 H   0  0  0  0  0  0  0  0  0  0  0  0
   16.8309    2.0948   19.4151 H   0  0  0  0  0  0  0  0  0  0  0  0
   17.8433    1.3580   18.1888 H   0  0  0  0  0  0  0  0  0  0  0  0
   14.8771    0.8259   18.7389 H   0  0  0  0  0  0  0  0  0  0  0  0
   15.4766    1.8191   17.4102 H   0  0  0  0  0  0  0  0  0  0  0  0
   18.3806    0.3736   16.3577 H   0  0  0  0  0  0  0  0  0  0  0  0
   19.0337    0.6920   14.0086 H   0  0  0  0  0  0  0  0  0  0  0  0
   17.3751    0.4057   12.1896 H   0  0  0  0  0  0  0  0  0  0  0  0
   15.0321   -0.1706   12.7172 H   0  0  0  0  0  0  0  0  0  0  0  0
   13.5074    1.4671   16.2633 H   0  0  0  0  0  0  0  0  0  0  0  0
   13.4905    1.4265   14.5167 H   0  0  0  0  0  0  0  0  0  0  0  0
   11.4212    0.1885   16.3365 H   0  0  0  0  0  0  0  0  0  0  0  0
   11.2344    1.6610   15.4006 H   0  0  0  0  0  0  0  0  0  0  0  0
   10.3673   -0.7745   14.6282 H   0  0  0  0  0  0  0  0  0  0  0  0
   10.0139    0.1393   12.7581 H   0  0  0  0  0  0  0  0  0  0  0  0
   12.8372   -0.5354   12.8842 H   0  0  0  0  0  0  0  0  0  0  0  0
   11.8144   -1.9167   13.1102 H   0  0  0  0  0  0  0  0  0  0  0  0
   13.9765   -2.2719   14.1596 H   0  0  0  0  0  0  0  0  0  0  0  0
   11.9325   -3.3360   15.1119 H   0  0  0  0  0  0  0  0  0  0  0  0
   11.7394   -2.0037   16.2186 H   0  0  0  0  0  0  0  0  0  0  0  0
   13.7023   -4.2413   16.3096 H   0  0  0  0  0  0  0  0  0  0  0  0
   12.8254   -3.4525   17.5940 H   0  0  0  0  0  0  0  0  0  0  0  0
   15.4597   -2.7899   16.3638 H   0  0  0  0  0  0  0  0  0  0  0  0
   14.9611   -2.6995   18.0361 H   0  0  0  0  0  0  0  0  0  0  0  0
   13.6950   -0.6162   17.6014 H   0  0  0  0  0  0  0  0  0  0  0  0
  1  2  1  0
  2  3  2  0
  2  4  1  0
  4  5  1  0
  5  6  1  0
  6  7  1  0
  7  8  2  0
  8  9  1  0
  9 10  2  0
 10 11  1  0
 11 12  2  0
 12 13  1  0
 13 14  1  0
 14 15  1  0
 15 16  1  0
 16 17  1  0
 16 18  1  0
 18 19  1  0
 19 20  1  0
 20 21  1  0
 21 22  1  0
 22 23  1  0
 23  6  1  0
 12  7  1  0
 19 13  1  0
 23 13  1  0
  1 24  1  0
  1 25  1  0
  4 26  1  0
  4 27  1  0
  5 28  1  0
  5 29  1  0
  8 30  1  0
  9 31  1  0
 10 32  1  0
 11 33  1  0
 14 34  1  0
 14 35  1  0
 15 36  1  0
 15 37  1  0
 16 38  1  0
 17 39  1  0
 18 40  1  0
 18 41  1  0
 19 42  1  0
 20 43  1  0
 20 44  1  0
 21 45  1  0
 21 46  1  0
 22 47  1  0
 22 48  1  0
 23 49  1  0
M  END
>  <Energy>  (172) 
207.19056348825265

>  <compound_id>  (172) 
1524

>  <target_id>  (172) 
1

>  <reference_id>  (172) 
98

>  <inspiration_ids>  (172) 
[8, 98]

>  <energy_score>  (172) 
104.630773886324

>  <distance_score>  (172) 
2.6980782606392926

>  <path>  (172) 
/opt/xchem-fragalysis-2/maxwin/BulkDock/SCRATCH/505732/C1524-P98/C1524-P98.minimised.mol

>  <scratch_subdir>  (172) 
/opt/xchem-fragalysis-2/maxwin/BulkDock/SCRATCH/505732/C1524-P98

>  <fragmenstein_runtime>  (172) 
7.067383289337158

>  <fragmenstein_outcome>  (172) 
too moved

>  <fragmenstein_mode>  (172) 
expansion

>  <fragmenstein_error>  (172) 


$$$$
C1527-P8
     RDKit          3D

 61 61  0  0  0  0  0  0  0  0999 V2000
   13.7807   -4.8577   21.2593 C   0  0  0  0  0  0  0  0  0  0  0  0
   14.8724   -3.9619   20.6931 C   0  0  0  0  0  0  0  0  0  0  0  0
   15.0545   -4.0998   19.2451 N   0  0  0  0  0  0  0  0  0  0  0  0
   13.9908   -3.4368   18.4866 C   0  0  0  0  0  0  0  0  0  0  0  0
   14.2431   -3.4331   16.9574 C   0  0  0  0  0  0  0  0  0  0  0  0
   15.5991   -2.7742   16.6459 C   0  0  0  0  0  0  0  0  0  0  0  0
   16.0747   -2.9660   15.2182 C   0  0  0  0  0  0  0  0  0  0  0  0
   13.0322   -2.8130   16.1980 C   0  0  0  0  0  0  0  0  0  0  0  0
   12.8106   -1.3006   16.3648 C   0  0  0  0  0  0  0  0  0  0  0  0
   13.4028   -0.4665   15.2164 C   0  0  0  0  0  0  0  0  0  0  0  0
   13.2898    1.0009   15.3731 N   0  0  0  0  0  0  0  0  0  0  0  0
   13.7383    1.6869   14.1393 C   0  0  0  0  0  0  0  0  0  0  0  0
   12.8080    2.8321   13.6711 C   0  0  0  0  0  0  0  0  0  0  0  0
   13.4828    3.7810   12.6583 C   0  0  0  0  0  0  0  0  0  0  0  0
   13.9903    3.1321   11.4142 C   0  0  0  0  0  0  0  0  0  0  0  0
   15.1327    2.4070   11.1487 C   0  0  0  0  0  0  0  0  0  0  0  0
   15.0396    2.0747    9.7869 C   0  0  0  0  0  0  0  0  0  0  0  0
   13.9225    2.5442    9.2306 N   0  0  0  0  0  0  0  0  0  0  0  0
   13.3378    3.2460   10.2119 N   0  0  0  0  0  0  0  0  0  0  0  0
   11.3722    2.4567   13.2033 C   0  0  0  0  0  0  0  0  0  0  0  0
   11.3565    1.4808   12.1379 N   0  0  0  0  0  0  0  0  0  0  0  0
   10.4740    3.0669   13.7174 O   0  0  0  0  0  0  0  0  0  0  0  0
   13.9251    1.5173   16.5960 C   0  0  0  0  0  0  0  0  0  0  0  0
   13.6788    3.0029   16.8635 C   0  0  0  0  0  0  0  0  0  0  0  0
   15.3590    1.2872   16.5638 N   0  0  0  0  0  0  0  0  0  0  0  0
   13.9798   -5.9104   21.0368 H   0  0  0  0  0  0  0  0  0  0  0  0
   13.7364   -4.7502   22.3480 H   0  0  0  0  0  0  0  0  0  0  0  0
   12.7957   -4.6000   20.8621 H   0  0  0  0  0  0  0  0  0  0  0  0
   15.8204   -4.2347   21.1709 H   0  0  0  0  0  0  0  0  0  0  0  0
   14.6852   -2.9163   20.9644 H   0  0  0  0  0  0  0  0  0  0  0  0
   15.1264   -5.0820   18.9970 H   0  0  0  0  0  0  0  0  0  0  0  0
   13.9335   -2.4017   18.8292 H   0  0  0  0  0  0  0  0  0  0  0  0
   13.0343   -3.9267   18.6835 H   0  0  0  0  0  0  0  0  0  0  0  0
   14.3020   -4.4783   16.6353 H   0  0  0  0  0  0  0  0  0  0  0  0
   16.3806   -3.1973   17.2880 H   0  0  0  0  0  0  0  0  0  0  0  0
   15.5648   -1.7117   16.8906 H   0  0  0  0  0  0  0  0  0  0  0  0
   16.2742   -4.0241   15.0250 H   0  0  0  0  0  0  0  0  0  0  0  0
   15.3563   -2.6107   14.4780 H   0  0  0  0  0  0  0  0  0  0  0  0
   17.0116   -2.4218   15.0600 H   0  0  0  0  0  0  0  0  0  0  0  0
   12.1288   -3.3293   16.5481 H   0  0  0  0  0  0  0  0  0  0  0  0
   13.0989   -3.0442   15.1325 H   0  0  0  0  0  0  0  0  0  0  0  0
   11.7313   -1.1075   16.3836 H   0  0  0  0  0  0  0  0  0  0  0  0
   13.2061   -0.9883   17.3303 H   0  0  0  0  0  0  0  0  0  0  0  0
   12.8568   -0.7581   14.3085 H   0  0  0  0  0  0  0  0  0  0  0  0
   14.4469   -0.7328   15.0433 H   0  0  0  0  0  0  0  0  0  0  0  0
   13.8392    0.9542   13.3317 H   0  0  0  0  0  0  0  0  0  0  0  0
   14.7546    2.0816   14.2625 H   0  0  0  0  0  0  0  0  0  0  0  0
   12.6270    3.4690   14.5457 H   0  0  0  0  0  0  0  0  0  0  0  0
   12.7794    4.5800   12.3881 H   0  0  0  0  0  0  0  0  0  0  0  0
   14.3281    4.2795   13.1515 H   0  0  0  0  0  0  0  0  0  0  0  0
   15.9283    2.1551   11.8374 H   0  0  0  0  0  0  0  0  0  0  0  0
   15.7319    1.5049    9.1797 H   0  0  0  0  0  0  0  0  0  0  0  0
   12.4797    3.7496   10.0007 H   0  0  0  0  0  0  0  0  0  0  0  0
   12.3063    1.0779   12.0350 H   0  0  0  0  0  0  0  0  0  0  0  0
   12.3342    1.2516   11.8750 H   0  0  0  0  0  0  0  0  0  0  0  0
   13.5076    1.0102   17.4700 H   0  0  0  0  0  0  0  0  0  0  0  0
   14.0505    3.2799   17.8577 H   0  0  0  0  0  0  0  0  0  0  0  0
   12.6067    3.2282   16.8515 H   0  0  0  0  0  0  0  0  0  0  0  0
   14.1852    3.6528   16.1419 H   0  0  0  0  0  0  0  0  0  0  0  0
   15.5349    0.2918   16.6409 H   0  0  0  0  0  0  0  0  0  0  0  0
   15.7784    1.6978   17.3971 H   0  0  0  0  0  0  0  0  0  0  0  0
  1  2  1  0
  2  3  1  0
  3  4  1  0
  4  5  1  0
  5  6  1  0
  6  7  1  0
  5  8  1  0
  8  9  1  0
  9 10  1  0
 10 11  1  0
 11 12  1  0
 12 13  1  0
 13 14  1  0
 14 15  1  0
 15 16  2  0
 16 17  1  0
 17 18  2  0
 18 19  1  0
 13 20  1  0
 20 21  1  0
 20 22  2  0
 11 23  1  0
 23 24  1  0
 23 25  1  0
 19 15  1  0
  1 26  1  0
  1 27  1  0
  1 28  1  0
  2 29  1  0
  2 30  1  0
  3 31  1  0
  4 32  1  0
  4 33  1  0
  5 34  1  0
  6 35  1  0
  6 36  1  0
  7 37  1  0
  7 38  1  0
  7 39  1  0
  8 40  1  0
  8 41  1  0
  9 42  1  0
  9 43  1  0
 10 44  1  0
 10 45  1  0
 12 46  1  0
 12 47  1  0
 13 48  1  0
 14 49  1  0
 14 50  1  0
 16 51  1  0
 17 52  1  0
 19 53  1  0
 21 54  1  0
 21 55  1  0
 23 56  1  0
 24 57  1  0
 24 58  1  0
 24 59  1  0
 25 60  1  0
 25 61  1  0
M  END
>  <Energy>  (173) 
136.51854565330157

>  <compound_id>  (173) 
1527

>  <target_id>  (173) 
1

>  <reference_id>  (173) 
8

>  <inspiration_ids>  (173) 
[8, 111]

>  <energy_score>  (173) 
100.84302994600466

>  <distance_score>  (173) 
2.305228609106047

>  <path>  (173) 
/opt/xchem-fragalysis-2/maxwin/BulkDock/SCRATCH/505732/C1527-P8/C1527-P8.minimised.mol

>  <scratch_subdir>  (173) 
/opt/xchem-fragalysis-2/maxwin/BulkDock/SCRATCH/505732/C1527-P8

>  <fragmenstein_runtime>  (173) 
7.5626935958862305

>  <fragmenstein_outcome>  (173) 
too moved

>  <fragmenstein_mode>  (173) 
expansion

>  <fragmenstein_error>  (173) 


$$$$
C1527-P111
     RDKit          3D

 61 61  0  0  0  0  0  0  0  0999 V2000
   13.6450   -5.1020   21.5854 C   0  0  0  0  0  0  0  0  0  0  0  0
   14.6596   -4.3976   20.7018 C   0  0  0  0  0  0  0  0  0  0  0  0
   13.9915   -3.3407   19.9439 N   0  0  0  0  0  0  0  0  0  0  0  0
   14.8955   -2.6498   19.0309 C   0  0  0  0  0  0  0  0  0  0  0  0
   14.9744   -3.3738   17.6614 C   0  0  0  0  0  0  0  0  0  0  0  0
   16.2937   -3.0078   16.9595 C   0  0  0  0  0  0  0  0  0  0  0  0
   16.6225   -3.8805   15.7627 C   0  0  0  0  0  0  0  0  0  0  0  0
   13.6758   -3.2224   16.8177 C   0  0  0  0  0  0  0  0  0  0  0  0
   13.6077   -2.1113   15.7579 C   0  0  0  0  0  0  0  0  0  0  0  0
   13.7946   -0.6982   16.3038 C   0  0  0  0  0  0  0  0  0  0  0  0
   13.9011    0.3464   15.2324 N   0  0  0  0  0  0  0  0  0  0  0  0
   15.2139    0.2566   14.5379 C   0  0  0  0  0  0  0  0  0  0  0  0
   15.1470    0.1736   12.9900 C   0  0  0  0  0  0  0  0  0  0  0  0
   15.1965   -1.2754   12.4572 C   0  0  0  0  0  0  0  0  0  0  0  0
   16.1538   -1.4339   11.3157 C   0  0  0  0  0  0  0  0  0  0  0  0
   17.2847   -2.2112   11.1883 C   0  0  0  0  0  0  0  0  0  0  0  0
   17.7559   -1.9576    9.8896 C   0  0  0  0  0  0  0  0  0  0  0  0
   16.9775   -1.1024    9.2221 N   0  0  0  0  0  0  0  0  0  0  0  0
   16.0231   -0.7720   10.1191 N   0  0  0  0  0  0  0  0  0  0  0  0
   13.9904    0.8915   12.2451 C   0  0  0  0  0  0  0  0  0  0  0  0
   12.7262    0.7860   12.9314 N   0  0  0  0  0  0  0  0  0  0  0  0
   14.2631    1.3684   11.1756 O   0  0  0  0  0  0  0  0  0  0  0  0
   13.7078    1.6586   15.8992 C   0  0  0  0  0  0  0  0  0  0  0  0
   14.1993    2.9285   15.1879 C   0  0  0  0  0  0  0  0  0  0  0  0
   12.2639    1.7570   16.0078 N   0  0  0  0  0  0  0  0  0  0  0  0
   12.8494   -5.5441   20.9789 H   0  0  0  0  0  0  0  0  0  0  0  0
   14.1267   -5.9062   22.1505 H   0  0  0  0  0  0  0  0  0  0  0  0
   13.1891   -4.4108   22.3022 H   0  0  0  0  0  0  0  0  0  0  0  0
   15.1135   -5.1357   20.0325 H   0  0  0  0  0  0  0  0  0  0  0  0
   15.4523   -3.9761   21.3303 H   0  0  0  0  0  0  0  0  0  0  0  0
   13.5714   -2.6884   20.6148 H   0  0  0  0  0  0  0  0  0  0  0  0
   15.8865   -2.5414   19.4885 H   0  0  0  0  0  0  0  0  0  0  0  0
   14.5241   -1.6314   18.8857 H   0  0  0  0  0  0  0  0  0  0  0  0
   15.0602   -4.4425   17.8875 H   0  0  0  0  0  0  0  0  0  0  0  0
   16.3185   -1.9569   16.6660 H   0  0  0  0  0  0  0  0  0  0  0  0
   17.1169   -3.1309   17.6758 H   0  0  0  0  0  0  0  0  0  0  0  0
   16.6454   -4.9383   16.0410 H   0  0  0  0  0  0  0  0  0  0  0  0
   17.6120   -3.6198   15.3725 H   0  0  0  0  0  0  0  0  0  0  0  0
   15.9120   -3.7546   14.9490 H   0  0  0  0  0  0  0  0  0  0  0  0
   12.8098   -3.1305   17.4821 H   0  0  0  0  0  0  0  0  0  0  0  0
   13.5244   -4.1703   16.2859 H   0  0  0  0  0  0  0  0  0  0  0  0
   14.3410   -2.3234   14.9841 H   0  0  0  0  0  0  0  0  0  0  0  0
   12.6312   -2.1707   15.2593 H   0  0  0  0  0  0  0  0  0  0  0  0
   14.6711   -0.6215   16.9523 H   0  0  0  0  0  0  0  0  0  0  0  0
   12.9238   -0.5037   16.9411 H   0  0  0  0  0  0  0  0  0  0  0  0
   15.7933   -0.6003   14.9004 H   0  0  0  0  0  0  0  0  0  0  0  0
   15.8673    1.0907   14.8116 H   0  0  0  0  0  0  0  0  0  0  0  0
   16.0586    0.6973   12.6611 H   0  0  0  0  0  0  0  0  0  0  0  0
   15.5346   -1.9618   13.2395 H   0  0  0  0  0  0  0  0  0  0  0  0
   14.2048   -1.6254   12.1463 H   0  0  0  0  0  0  0  0  0  0  0  0
   17.7050   -2.8775   11.9282 H   0  0  0  0  0  0  0  0  0  0  0  0
   18.6250   -2.3749    9.3971 H   0  0  0  0  0  0  0  0  0  0  0  0
   15.3227   -0.0766    9.8629 H   0  0  0  0  0  0  0  0  0  0  0  0
   12.8931    0.4139   13.9005 H   0  0  0  0  0  0  0  0  0  0  0  0
   12.8539    0.2016   13.7952 H   0  0  0  0  0  0  0  0  0  0  0  0
   14.1577    1.6575   16.9005 H   0  0  0  0  0  0  0  0  0  0  0  0
   13.8320    3.8235   15.7059 H   0  0  0  0  0  0  0  0  0  0  0  0
   13.8508    2.9923   14.1531 H   0  0  0  0  0  0  0  0  0  0  0  0
   15.2901    3.0081   15.1895 H   0  0  0  0  0  0  0  0  0  0  0  0
   11.8725    1.9468   15.0833 H   0  0  0  0  0  0  0  0  0  0  0  0
   12.0300    2.5830   16.5584 H   0  0  0  0  0  0  0  0  0  0  0  0
  1  2  1  0
  2  3  1  0
  3  4  1  0
  4  5  1  0
  5  6  1  0
  6  7  1  0
  5  8  1  0
  8  9  1  0
  9 10  1  0
 10 11  1  0
 11 12  1  0
 12 13  1  0
 13 14  1  0
 14 15  1  0
 15 16  2  0
 16 17  1  0
 17 18  2  0
 18 19  1  0
 13 20  1  0
 20 21  1  0
 20 22  2  0
 11 23  1  0
 23 24  1  0
 23 25  1  0
 19 15  1  0
  1 26  1  0
  1 27  1  0
  1 28  1  0
  2 29  1  0
  2 30  1  0
  3 31  1  0
  4 32  1  0
  4 33  1  0
  5 34  1  0
  6 35  1  0
  6 36  1  0
  7 37  1  0
  7 38  1  0
  7 39  1  0
  8 40  1  0
  8 41  1  0
  9 42  1  0
  9 43  1  0
 10 44  1  0
 10 45  1  0
 12 46  1  0
 12 47  1  0
 13 48  1  0
 14 49  1  0
 14 50  1  0
 16 51  1  0
 17 52  1  0
 19 53  1  0
 21 54  1  0
 21 55  1  0
 23 56  1  0
 24 57  1  0
 24 58  1  0
 24 59  1  0
 25 60  1  0
 25 61  1  0
M  END
>  <Energy>  (174) 
126.58182579851271

>  <compound_id>  (174) 
1527

>  <target_id>  (174) 
1

>  <reference_id>  (174) 
111

>  <inspiration_ids>  (174) 
[8, 111]

>  <energy_score>  (174) 
90.90631009121395

>  <distance_score>  (174) 
2.8954064673197606

>  <path>  (174) 
/opt/xchem-fragalysis-2/maxwin/BulkDock/SCRATCH/505732/C1527-P111/C1527-P111.minimised.mol

>  <scratch_subdir>  (174) 
/opt/xchem-fragalysis-2/maxwin/BulkDock/SCRATCH/505732/C1527-P111

>  <fragmenstein_runtime>  (174) 
7.699236869812012

>  <fragmenstein_outcome>  (174) 
too moved

>  <fragmenstein_mode>  (174) 
expansion

>  <fragmenstein_error>  (174) 


$$$$
C1528-P8
     RDKit          3D

 55 59  0  0  0  0  0  0  0  0999 V2000
   12.2722    1.7265   14.6416 C   0  0  0  0  0  0  0  0  0  0  0  0
   12.6844    0.4409   15.2560 C   0  0  0  0  0  0  0  0  0  0  0  0
   11.9095   -0.6073   15.4503 N   0  0  0  0  0  0  0  0  0  0  0  0
   12.7204   -1.5420   16.0146 C   0  0  0  0  0  0  0  0  0  0  0  0
   13.9350   -0.9991   16.3854 C   0  0  0  0  0  0  0  0  0  0  0  0
   13.9848    0.1428   15.6117 N   0  0  0  0  0  0  0  0  0  0  0  0
   15.1536    0.7440   14.9935 C   0  0  0  0  0  0  0  0  0  0  0  0
   15.8126   -0.1912   13.9850 C   0  0  0  0  0  0  0  0  0  0  0  0
   17.3077    0.0829   13.8816 C   0  0  0  0  0  0  0  0  0  0  0  0
   18.0009   -0.3764   15.0692 N   0  0  0  0  0  0  0  0  0  0  0  0
   17.7247    0.6099   12.8897 O   0  0  0  0  0  0  0  0  0  0  0  0
   14.9496   -1.7140   17.2279 C   0  0  0  0  0  0  0  0  0  0  0  0
   14.8971   -3.2039   16.7811 C   0  0  0  0  0  0  0  0  0  0  0  0
   13.4511   -3.7779   16.8639 C   0  0  0  0  0  0  0  0  0  0  0  0
   12.3975   -2.9823   16.0749 C   0  0  0  0  0  0  0  0  0  0  0  0
   16.2913   -1.0972   17.1777 N   0  0  0  0  0  0  0  0  0  0  0  0
   16.1311   -0.0397   18.2080 C   0  0  0  0  0  0  0  0  0  0  0  0
   17.6178    0.9368   18.5228 S   0  0  0  0  0  0  0  0  0  0  0  0
   16.8523    2.5107   18.5101 C   0  0  0  0  0  0  0  0  0  0  0  0
   16.1167    2.9250   19.5630 C   0  0  0  0  0  0  0  0  0  0  0  0
   15.2813    4.1105   19.4336 C   0  0  0  0  0  0  0  0  0  0  0  0
   15.1733    4.7722   18.2668 C   0  0  0  0  0  0  0  0  0  0  0  0
   15.9372    4.3432   17.1512 C   0  0  0  0  0  0  0  0  0  0  0  0
   15.9827    4.7427   15.9002 N   0  0  0  0  0  0  0  0  0  0  0  0
   16.9463    4.0012   15.2580 N   0  0  0  0  0  0  0  0  0  0  0  0
   17.4538    3.1578   16.1288 C   0  0  0  0  0  0  0  0  0  0  0  0
   16.8026    3.2700   17.3298 N   0  0  0  0  0  0  0  0  0  0  0  0
   15.4719   -0.7001   19.3183 N   0  0  0  0  0  0  0  0  0  0  0  0
   16.3355   -1.4119   20.2613 C   0  0  0  0  0  0  0  0  0  0  0  0
   14.5707   -1.6337   18.6489 N   0  0  0  0  0  0  0  0  0  0  0  0
   11.1822    1.8252   14.6652 H   0  0  0  0  0  0  0  0  0  0  0  0
   12.5925    1.7754   13.5965 H   0  0  0  0  0  0  0  0  0  0  0  0
   12.6963    2.5764   15.1853 H   0  0  0  0  0  0  0  0  0  0  0  0
   15.8224    1.0564   15.7867 H   0  0  0  0  0  0  0  0  0  0  0  0
   14.8551    1.6678   14.4875 H   0  0  0  0  0  0  0  0  0  0  0  0
   15.6777   -1.2525   14.2239 H   0  0  0  0  0  0  0  0  0  0  0  0
   15.3580   -0.0510   12.9963 H   0  0  0  0  0  0  0  0  0  0  0  0
   17.2961   -0.6794   15.7803 H   0  0  0  0  0  0  0  0  0  0  0  0
   17.3274   -0.8936   15.6789 H   0  0  0  0  0  0  0  0  0  0  0  0
   15.2587   -3.2983   15.7487 H   0  0  0  0  0  0  0  0  0  0  0  0
   15.5611   -3.8194   17.4019 H   0  0  0  0  0  0  0  0  0  0  0  0
   13.1434   -3.8266   17.9154 H   0  0  0  0  0  0  0  0  0  0  0  0
   13.4431   -4.8074   16.5032 H   0  0  0  0  0  0  0  0  0  0  0  0
   11.4040   -3.1543   16.4827 H   0  0  0  0  0  0  0  0  0  0  0  0
   12.3678   -3.3531   15.0447 H   0  0  0  0  0  0  0  0  0  0  0  0
   16.8960   -1.7715   17.6521 H   0  0  0  0  0  0  0  0  0  0  0  0
   15.4029    0.6840   17.8296 H   0  0  0  0  0  0  0  0  0  0  0  0
   16.0483    2.3620   20.4901 H   0  0  0  0  0  0  0  0  0  0  0  0
   14.7036    4.4210   20.3004 H   0  0  0  0  0  0  0  0  0  0  0  0
   14.5243    5.6343   18.1571 H   0  0  0  0  0  0  0  0  0  0  0  0
   18.2510    2.4529   15.9368 H   0  0  0  0  0  0  0  0  0  0  0  0
   15.7255   -1.9273   21.0130 H   0  0  0  0  0  0  0  0  0  0  0  0
   16.9686   -0.7138   20.8185 H   0  0  0  0  0  0  0  0  0  0  0  0
   16.9772   -2.1601   19.7828 H   0  0  0  0  0  0  0  0  0  0  0  0
   14.5336   -2.5508   19.0938 H   0  0  0  0  0  0  0  0  0  0  0  0
  1  2  1  0
  2  3  2  0
  3  4  1  0
  4  5  2  0
  5  6  1  0
  6  7  1  0
  7  8  1  0
  8  9  1  0
  9 10  1  0
  9 11  2  0
  5 12  1  0
 12 13  1  0
 13 14  1  0
 14 15  1  0
 12 16  1  0
 16 17  1  0
 17 18  1  0
 18 19  1  0
 19 20  2  0
 20 21  1  0
 21 22  2  0
 22 23  1  0
 23 24  2  0
 24 25  1  0
 25 26  2  0
 26 27  1  0
 17 28  1  0
 28 29  1  0
 28 30  1  0
  6  2  1  0
 30 12  1  0
 15  4  1  0
 27 19  1  0
 27 23  1  0
  1 31  1  0
  1 32  1  0
  1 33  1  0
  7 34  1  0
  7 35  1  0
  8 36  1  0
  8 37  1  0
 10 38  1  0
 10 39  1  0
 13 40  1  0
 13 41  1  0
 14 42  1  0
 14 43  1  0
 15 44  1  0
 15 45  1  0
 16 46  1  0
 17 47  1  0
 20 48  1  0
 21 49  1  0
 22 50  1  0
 26 51  1  0
 29 52  1  0
 29 53  1  0
 29 54  1  0
 30 55  1  0
M  END
>  <Energy>  (175) 
142.21850052433871

>  <compound_id>  (175) 
1528

>  <target_id>  (175) 
1

>  <reference_id>  (175) 
8

>  <inspiration_ids>  (175) 
[8, 113]

>  <energy_score>  (175) 
115.49889567999408

>  <distance_score>  (175) 
3.019977950139644

>  <path>  (175) 
/opt/xchem-fragalysis-2/maxwin/BulkDock/SCRATCH/505732/C1528-P8/C1528-P8.minimised.mol

>  <scratch_subdir>  (175) 
/opt/xchem-fragalysis-2/maxwin/BulkDock/SCRATCH/505732/C1528-P8

>  <fragmenstein_runtime>  (175) 
4.393639087677002

>  <fragmenstein_outcome>  (175) 
too moved

>  <fragmenstein_mode>  (175) 
expansion

>  <fragmenstein_error>  (175) 


$$$$
C1528-P113
     RDKit          3D

 55 59  0  0  0  0  0  0  0  0999 V2000
   16.3262    0.8932   12.8256 C   0  0  0  0  0  0  0  0  0  0  0  0
   15.2690    0.1869   13.5867 C   0  0  0  0  0  0  0  0  0  0  0  0
   14.0042    0.0872   13.2282 N   0  0  0  0  0  0  0  0  0  0  0  0
   13.3854   -0.5663   14.2499 C   0  0  0  0  0  0  0  0  0  0  0  0
   14.2629   -0.8031   15.2895 C   0  0  0  0  0  0  0  0  0  0  0  0
   15.4956   -0.4844   14.7713 N   0  0  0  0  0  0  0  0  0  0  0  0
   16.7860   -1.0058   15.1978 C   0  0  0  0  0  0  0  0  0  0  0  0
   16.9074   -2.4492   14.7317 C   0  0  0  0  0  0  0  0  0  0  0  0
   17.9349   -3.2438   15.5228 C   0  0  0  0  0  0  0  0  0  0  0  0
   17.7163   -4.6629   15.3001 N   0  0  0  0  0  0  0  0  0  0  0  0
   18.7677   -2.6750   16.1697 O   0  0  0  0  0  0  0  0  0  0  0  0
   13.8556   -1.3169   16.6281 C   0  0  0  0  0  0  0  0  0  0  0  0
   12.5963   -2.2033   16.4009 C   0  0  0  0  0  0  0  0  0  0  0  0
   11.4881   -1.4771   15.6027 C   0  0  0  0  0  0  0  0  0  0  0  0
   11.9616   -0.9891   14.2217 C   0  0  0  0  0  0  0  0  0  0  0  0
   13.4888   -0.1845   17.4766 N   0  0  0  0  0  0  0  0  0  0  0  0
   14.5769    0.0110   18.4146 C   0  0  0  0  0  0  0  0  0  0  0  0
   15.7391    1.2796   17.7962 S   0  0  0  0  0  0  0  0  0  0  0  0
   14.8579    2.7418   18.1003 C   0  0  0  0  0  0  0  0  0  0  0  0
   14.9188    3.3323   19.3111 C   0  0  0  0  0  0  0  0  0  0  0  0
   14.1734    4.5574   19.5511 C   0  0  0  0  0  0  0  0  0  0  0  0
   13.4152    5.1202   18.5925 C   0  0  0  0  0  0  0  0  0  0  0  0
   13.3485    4.5177   17.3104 C   0  0  0  0  0  0  0  0  0  0  0  0
   12.6989    4.8409   16.2140 N   0  0  0  0  0  0  0  0  0  0  0  0
   13.0314    3.9275   15.2453 N   0  0  0  0  0  0  0  0  0  0  0  0
   13.8718    3.0690   15.7774 C   0  0  0  0  0  0  0  0  0  0  0  0
   14.0896    3.3618   17.0987 N   0  0  0  0  0  0  0  0  0  0  0  0
   15.0713   -1.3474   18.5990 N   0  0  0  0  0  0  0  0  0  0  0  0
   16.4079   -1.5056   19.1460 C   0  0  0  0  0  0  0  0  0  0  0  0
   14.9037   -2.0482   17.3356 N   0  0  0  0  0  0  0  0  0  0  0  0
   17.0360    0.1803   12.3954 H   0  0  0  0  0  0  0  0  0  0  0  0
   16.8698    1.5919   13.4690 H   0  0  0  0  0  0  0  0  0  0  0  0
   15.8861    1.4678   12.0044 H   0  0  0  0  0  0  0  0  0  0  0  0
   17.5804   -0.3904   14.7637 H   0  0  0  0  0  0  0  0  0  0  0  0
   16.8724   -0.8971   16.2747 H   0  0  0  0  0  0  0  0  0  0  0  0
   15.9366   -2.9474   14.8275 H   0  0  0  0  0  0  0  0  0  0  0  0
   17.1909   -2.4781   13.6726 H   0  0  0  0  0  0  0  0  0  0  0  0
   16.8237   -4.7918   14.7758 H   0  0  0  0  0  0  0  0  0  0  0  0
   16.9668   -4.7837   14.5850 H   0  0  0  0  0  0  0  0  0  0  0  0
   12.8693   -3.1106   15.8531 H   0  0  0  0  0  0  0  0  0  0  0  0
   12.2025   -2.5503   17.3580 H   0  0  0  0  0  0  0  0  0  0  0  0
   11.1305   -0.6156   16.1794 H   0  0  0  0  0  0  0  0  0  0  0  0
   10.6265   -2.1408   15.4722 H   0  0  0  0  0  0  0  0  0  0  0  0
   11.3210   -0.1732   13.8708 H   0  0  0  0  0  0  0  0  0  0  0  0
   11.8681   -1.8128   13.5038 H   0  0  0  0  0  0  0  0  0  0  0  0
   13.3897    0.6439   16.9053 H   0  0  0  0  0  0  0  0  0  0  0  0
   14.1788    0.3648   19.3708 H   0  0  0  0  0  0  0  0  0  0  0  0
   15.5022    2.9292   20.1337 H   0  0  0  0  0  0  0  0  0  0  0  0
   14.2312    5.0012   20.5408 H   0  0  0  0  0  0  0  0  0  0  0  0
   12.8447    6.0237   18.7736 H   0  0  0  0  0  0  0  0  0  0  0  0
   14.3356    2.2462   15.2593 H   0  0  0  0  0  0  0  0  0  0  0  0
   16.6033   -2.5631   19.3585 H   0  0  0  0  0  0  0  0  0  0  0  0
   16.4956   -0.9744   20.1002 H   0  0  0  0  0  0  0  0  0  0  0  0
   17.2023   -1.1541   18.4810 H   0  0  0  0  0  0  0  0  0  0  0  0
   14.5698   -2.9927   17.5313 H   0  0  0  0  0  0  0  0  0  0  0  0
  1  2  1  0
  2  3  2  0
  3  4  1  0
  4  5  2  0
  5  6  1  0
  6  7  1  0
  7  8  1  0
  8  9  1  0
  9 10  1  0
  9 11  2  0
  5 12  1  0
 12 13  1  0
 13 14  1  0
 14 15  1  0
 12 16  1  0
 16 17  1  0
 17 18  1  0
 18 19  1  0
 19 20  2  0
 20 21  1  0
 21 22  2  0
 22 23  1  0
 23 24  2  0
 24 25  1  0
 25 26  2  0
 26 27  1  0
 17 28  1  0
 28 29  1  0
 28 30  1  0
  6  2  1  0
 30 12  1  0
 15  4  1  0
 27 19  1  0
 27 23  1  0
  1 31  1  0
  1 32  1  0
  1 33  1  0
  7 34  1  0
  7 35  1  0
  8 36  1  0
  8 37  1  0
 10 38  1  0
 10 39  1  0
 13 40  1  0
 13 41  1  0
 14 42  1  0
 14 43  1  0
 15 44  1  0
 15 45  1  0
 16 46  1  0
 17 47  1  0
 20 48  1  0
 21 49  1  0
 22 50  1  0
 26 51  1  0
 29 52  1  0
 29 53  1  0
 29 54  1  0
 30 55  1  0
M  END
>  <Energy>  (176) 
133.23859402225131

>  <compound_id>  (176) 
1528

>  <target_id>  (176) 
1

>  <reference_id>  (176) 
113

>  <inspiration_ids>  (176) 
[8, 113]

>  <energy_score>  (176) 
106.51898917790889

>  <distance_score>  (176) 
2.375018912327995

>  <path>  (176) 
/opt/xchem-fragalysis-2/maxwin/BulkDock/SCRATCH/505732/C1528-P113/C1528-P113.minimised.mol

>  <scratch_subdir>  (176) 
/opt/xchem-fragalysis-2/maxwin/BulkDock/SCRATCH/505732/C1528-P113

>  <fragmenstein_runtime>  (176) 
5.523064851760864

>  <fragmenstein_outcome>  (176) 
too moved

>  <fragmenstein_mode>  (176) 
expansion

>  <fragmenstein_error>  (176) 


$$$$
C1529-P8
     RDKit          3D

 57 58  0  0  0  0  0  0  0  0999 V2000
   20.7569    0.6778   14.6206 C   0  0  0  0  0  0  0  0  0  0  0  0
   19.3545    1.0245   14.1471 C   0  0  0  0  0  0  0  0  0  0  0  0
   18.3555    1.3436   15.2711 C   0  0  0  0  0  0  0  0  0  0  0  0
   17.7387    0.1414   16.0683 C   0  0  0  0  0  0  0  0  0  0  0  0
   18.8749   -0.5683   16.8893 C   0  0  0  0  0  0  0  0  0  0  0  0
   19.1961   -1.6600   16.6362 O   0  0  0  0  0  0  0  0  0  0  0  0
   19.4308    0.4192   17.9321 N   0  0  0  0  0  0  0  0  0  0  0  0
   20.3958    0.2470   18.9072 O   0  0  0  0  0  0  0  0  0  0  0  0
   16.6214    0.6947   17.0066 C   0  0  0  0  0  0  0  0  0  0  0  0
   15.8508   -0.3836   17.7563 C   0  0  0  0  0  0  0  0  0  0  0  0
   15.3110   -1.4021   16.8288 N   0  0  0  0  0  0  0  0  0  0  0  0
   14.1610   -2.3776   17.5498 S   0  0  0  0  0  0  0  0  0  0  0  0
   12.9250   -1.6399   17.4736 O   0  0  0  0  0  0  0  0  0  0  0  0
   14.7011   -2.8335   18.8130 O   0  0  0  0  0  0  0  0  0  0  0  0
   13.9561   -3.7868   16.5203 C   0  0  0  0  0  0  0  0  0  0  0  0
   12.6528   -4.4512   16.8675 C   0  0  0  0  0  0  0  0  0  0  0  0
   16.3565   -2.0171   16.0067 C   0  0  0  0  0  0  0  0  0  0  0  0
   17.0437   -0.9238   15.1229 C   0  0  0  0  0  0  0  0  0  0  0  0
   16.1405   -0.2041   14.1740 N   0  0  0  0  0  0  0  0  0  0  0  0
   15.0908   -0.9792   13.5108 C   0  0  0  0  0  0  0  0  0  0  0  0
   13.7225   -0.8482   14.1364 C   0  0  0  0  0  0  0  0  0  0  0  0
   13.3078    0.2717   14.8594 C   0  0  0  0  0  0  0  0  0  0  0  0
   11.9931    0.3753   15.3020 C   0  0  0  0  0  0  0  0  0  0  0  0
   11.1158   -0.6635   15.0303 C   0  0  0  0  0  0  0  0  0  0  0  0
    9.6617   -0.5097   15.3471 C   0  0  0  0  0  0  0  0  0  0  0  0
   11.4940   -1.7767   14.3661 N   0  0  0  0  0  0  0  0  0  0  0  0
   12.7581   -1.8176   13.8999 C   0  0  0  0  0  0  0  0  0  0  0  0
   21.4462    0.6761   13.7695 H   0  0  0  0  0  0  0  0  0  0  0  0
   21.1242    1.4089   15.3473 H   0  0  0  0  0  0  0  0  0  0  0  0
   20.8008   -0.3166   15.0685 H   0  0  0  0  0  0  0  0  0  0  0  0
   18.9838    0.2338   13.4889 H   0  0  0  0  0  0  0  0  0  0  0  0
   19.4369    1.9226   13.5212 H   0  0  0  0  0  0  0  0  0  0  0  0
   17.5344    1.9122   14.8132 H   0  0  0  0  0  0  0  0  0  0  0  0
   18.8267    2.0612   15.9529 H   0  0  0  0  0  0  0  0  0  0  0  0
   18.9712    1.3152   17.8278 H   0  0  0  0  0  0  0  0  0  0  0  0
   20.6663   -0.6832   18.7719 H   0  0  0  0  0  0  0  0  0  0  0  0
   17.0164    1.4058   17.7392 H   0  0  0  0  0  0  0  0  0  0  0  0
   15.9070    1.2782   16.4124 H   0  0  0  0  0  0  0  0  0  0  0  0
   16.5052   -0.8606   18.4956 H   0  0  0  0  0  0  0  0  0  0  0  0
   15.0293    0.0998   18.2985 H   0  0  0  0  0  0  0  0  0  0  0  0
   13.9153   -3.4259   15.5052 H   0  0  0  0  0  0  0  0  0  0  0  0
   14.8154   -4.4429   16.6619 H   0  0  0  0  0  0  0  0  0  0  0  0
   12.5667   -5.4169   16.3811 H   0  0  0  0  0  0  0  0  0  0  0  0
   11.7988   -3.8464   16.5492 H   0  0  0  0  0  0  0  0  0  0  0  0
   12.5873   -4.5896   17.9487 H   0  0  0  0  0  0  0  0  0  0  0  0
   15.9520   -2.7765   15.3366 H   0  0  0  0  0  0  0  0  0  0  0  0
   17.0616   -2.5457   16.6533 H   0  0  0  0  0  0  0  0  0  0  0  0
   17.8019   -1.4391   14.5197 H   0  0  0  0  0  0  0  0  0  0  0  0
   16.7132    0.2310   13.4518 H   0  0  0  0  0  0  0  0  0  0  0  0
   15.3824   -2.0279   13.3857 H   0  0  0  0  0  0  0  0  0  0  0  0
   14.9891   -0.5828   12.4915 H   0  0  0  0  0  0  0  0  0  0  0  0
   13.9995    1.0849   15.0566 H   0  0  0  0  0  0  0  0  0  0  0  0
   11.6689    1.2619   15.8357 H   0  0  0  0  0  0  0  0  0  0  0  0
    9.1782    0.0555   14.5477 H   0  0  0  0  0  0  0  0  0  0  0  0
    9.5122    0.0292   16.2864 H   0  0  0  0  0  0  0  0  0  0  0  0
    9.1720   -1.4832   15.4223 H   0  0  0  0  0  0  0  0  0  0  0  0
   12.9681   -2.6797   13.2769 H   0  0  0  0  0  0  0  0  0  0  0  0
  1  2  1  0
  2  3  1  0
  3  4  1  0
  4  5  1  0
  5  6  2  0
  5  7  1  0
  7  8  1  0
  4  9  1  0
  9 10  1  0
 10 11  1  0
 11 12  1  0
 12 13  2  0
 12 14  2  0
 12 15  1  0
 15 16  1  0
 11 17  1  0
 17 18  1  0
 18 19  1  0
 19 20  1  0
 20 21  1  0
 21 22  2  0
 22 23  1  0
 23 24  2  0
 24 25  1  0
 24 26  1  0
 26 27  2  0
 18  4  1  0
 27 21  1  0
  1 28  1  0
  1 29  1  0
  1 30  1  0
  2 31  1  0
  2 32  1  0
  3 33  1  0
  3 34  1  0
  7 35  1  0
  8 36  1  0
  9 37  1  0
  9 38  1  0
 10 39  1  0
 10 40  1  0
 15 41  1  0
 15 42  1  0
 16 43  1  0
 16 44  1  0
 16 45  1  0
 17 46  1  0
 17 47  1  0
 18 48  1  0
 19 49  1  0
 20 50  1  0
 20 51  1  0
 22 52  1  0
 23 53  1  0
 25 54  1  0
 25 55  1  0
 25 56  1  0
 27 57  1  0
M  END
>  <Energy>  (177) 
51.236086012657623

>  <compound_id>  (177) 
1529

>  <target_id>  (177) 
1

>  <reference_id>  (177) 
8

>  <inspiration_ids>  (177) 
[8, 114]

>  <energy_score>  (177) 
-39.053064701785985

>  <distance_score>  (177) 
2.4389641198792473

>  <path>  (177) 
/opt/xchem-fragalysis-2/maxwin/BulkDock/SCRATCH/505732/C1529-P8/C1529-P8.minimised.mol

>  <scratch_subdir>  (177) 
/opt/xchem-fragalysis-2/maxwin/BulkDock/SCRATCH/505732/C1529-P8

>  <fragmenstein_runtime>  (177) 
7.717222690582275

>  <fragmenstein_outcome>  (177) 
too moved

>  <fragmenstein_mode>  (177) 
expansion

>  <fragmenstein_error>  (177) 


$$$$
C1529-P114
     RDKit          3D

 57 58  0  0  0  0  0  0  0  0999 V2000
   20.7753   -1.0360   13.7139 C   0  0  0  0  0  0  0  0  0  0  0  0
   19.4693   -0.3683   13.3148 C   0  0  0  0  0  0  0  0  0  0  0  0
   18.6956    0.2799   14.4744 C   0  0  0  0  0  0  0  0  0  0  0  0
   17.8823   -0.6600   15.4319 C   0  0  0  0  0  0  0  0  0  0  0  0
   18.8863   -1.5571   16.2422 C   0  0  0  0  0  0  0  0  0  0  0  0
   18.9172   -2.7107   16.0777 O   0  0  0  0  0  0  0  0  0  0  0  0
   19.7504   -0.6537   17.1418 N   0  0  0  0  0  0  0  0  0  0  0  0
   20.7311   -0.9764   18.0615 O   0  0  0  0  0  0  0  0  0  0  0  0
   17.0198    0.2314   16.3786 C   0  0  0  0  0  0  0  0  0  0  0  0
   16.1047   -0.5636   17.2964 C   0  0  0  0  0  0  0  0  0  0  0  0
   15.2424   -1.4948   16.5265 N   0  0  0  0  0  0  0  0  0  0  0  0
   13.9892   -2.0761   17.4620 S   0  0  0  0  0  0  0  0  0  0  0  0
   13.0496   -0.9839   17.5178 O   0  0  0  0  0  0  0  0  0  0  0  0
   14.5780   -2.6019   18.6766 O   0  0  0  0  0  0  0  0  0  0  0  0
   13.1736   -3.3840   16.5997 C   0  0  0  0  0  0  0  0  0  0  0  0
   13.5826   -4.7174   17.1126 C   0  0  0  0  0  0  0  0  0  0  0  0
   16.0242   -2.4140   15.6975 C   0  0  0  0  0  0  0  0  0  0  0  0
   16.8657   -1.5962   14.6553 C   0  0  0  0  0  0  0  0  0  0  0  0
   16.0702   -0.7477   13.7124 N   0  0  0  0  0  0  0  0  0  0  0  0
   14.8672   -1.3416   13.1302 C   0  0  0  0  0  0  0  0  0  0  0  0
   13.5904   -1.0182   13.8644 C   0  0  0  0  0  0  0  0  0  0  0  0
   13.3577    0.1997   14.5054 C   0  0  0  0  0  0  0  0  0  0  0  0
   12.1160    0.4674   15.0750 C   0  0  0  0  0  0  0  0  0  0  0  0
   11.1413   -0.5165   15.0364 C   0  0  0  0  0  0  0  0  0  0  0  0
    9.7516   -0.2191   15.4989 C   0  0  0  0  0  0  0  0  0  0  0  0
   11.3581   -1.7246   14.4793 N   0  0  0  0  0  0  0  0  0  0  0  0
   12.5321   -1.9118   13.8440 C   0  0  0  0  0  0  0  0  0  0  0  0
   21.3589   -1.2748   12.8184 H   0  0  0  0  0  0  0  0  0  0  0  0
   21.3826   -0.3791   14.3440 H   0  0  0  0  0  0  0  0  0  0  0  0
   20.6062   -1.9752   14.2438 H   0  0  0  0  0  0  0  0  0  0  0  0
   18.8485   -1.0788   12.7617 H   0  0  0  0  0  0  0  0  0  0  0  0
   19.7177    0.4304   12.6039 H   0  0  0  0  0  0  0  0  0  0  0  0
   18.0006    1.0035   14.0268 H   0  0  0  0  0  0  0  0  0  0  0  0
   19.3953    0.9027   15.0441 H   0  0  0  0  0  0  0  0  0  0  0  0
   19.5074    0.3157   16.9803 H   0  0  0  0  0  0  0  0  0  0  0  0
   20.7521   -1.9530   18.0105 H   0  0  0  0  0  0  0  0  0  0  0  0
   17.6371    0.8934   16.9942 H   0  0  0  0  0  0  0  0  0  0  0  0
   16.3991    0.9080   15.7761 H   0  0  0  0  0  0  0  0  0  0  0  0
   16.7039   -1.1240   18.0240 H   0  0  0  0  0  0  0  0  0  0  0  0
   15.4854    0.1498   17.8532 H   0  0  0  0  0  0  0  0  0  0  0  0
   12.0978   -3.2463   16.7312 H   0  0  0  0  0  0  0  0  0  0  0  0
   13.3926   -3.3233   15.5465 H   0  0  0  0  0  0  0  0  0  0  0  0
   14.6610   -4.8538   16.9871 H   0  0  0  0  0  0  0  0  0  0  0  0
   13.0465   -5.4748   16.5419 H   0  0  0  0  0  0  0  0  0  0  0  0
   13.3414   -4.8383   18.1730 H   0  0  0  0  0  0  0  0  0  0  0  0
   15.3859   -3.0981   15.1406 H   0  0  0  0  0  0  0  0  0  0  0  0
   16.6434   -3.0466   16.3385 H   0  0  0  0  0  0  0  0  0  0  0  0
   17.4179   -2.3270   14.0509 H   0  0  0  0  0  0  0  0  0  0  0  0
   16.6787   -0.4724   12.9428 H   0  0  0  0  0  0  0  0  0  0  0  0
   14.9978   -2.4188   12.9856 H   0  0  0  0  0  0  0  0  0  0  0  0
   14.7458   -0.9237   12.1218 H   0  0  0  0  0  0  0  0  0  0  0  0
   14.1382    0.9546   14.5470 H   0  0  0  0  0  0  0  0  0  0  0  0
   11.9294    1.4262   15.5465 H   0  0  0  0  0  0  0  0  0  0  0  0
    9.2033   -1.1424   15.7049 H   0  0  0  0  0  0  0  0  0  0  0  0
    9.2205    0.3201   14.7129 H   0  0  0  0  0  0  0  0  0  0  0  0
    9.7541    0.3941   16.4036 H   0  0  0  0  0  0  0  0  0  0  0  0
   12.5937   -2.8539   13.3108 H   0  0  0  0  0  0  0  0  0  0  0  0
  1  2  1  0
  2  3  1  0
  3  4  1  0
  4  5  1  0
  5  6  2  0
  5  7  1  0
  7  8  1  0
  4  9  1  0
  9 10  1  0
 10 11  1  0
 11 12  1  0
 12 13  2  0
 12 14  2  0
 12 15  1  0
 15 16  1  0
 11 17  1  0
 17 18  1  0
 18 19  1  0
 19 20  1  0
 20 21  1  0
 21 22  2  0
 22 23  1  0
 23 24  2  0
 24 25  1  0
 24 26  1  0
 26 27  2  0
 18  4  1  0
 27 21  1  0
  1 28  1  0
  1 29  1  0
  1 30  1  0
  2 31  1  0
  2 32  1  0
  3 33  1  0
  3 34  1  0
  7 35  1  0
  8 36  1  0
  9 37  1  0
  9 38  1  0
 10 39  1  0
 10 40  1  0
 15 41  1  0
 15 42  1  0
 16 43  1  0
 16 44  1  0
 16 45  1  0
 17 46  1  0
 17 47  1  0
 18 48  1  0
 19 49  1  0
 20 50  1  0
 20 51  1  0
 22 52  1  0
 23 53  1  0
 25 54  1  0
 25 55  1  0
 25 56  1  0
 27 57  1  0
M  END
>  <Energy>  (178) 
53.369789284140609

>  <compound_id>  (178) 
1529

>  <target_id>  (178) 
1

>  <reference_id>  (178) 
114

>  <inspiration_ids>  (178) 
[8, 114]

>  <energy_score>  (178) 
-36.91936143030328

>  <distance_score>  (178) 
2.3184795251124704

>  <path>  (178) 
/opt/xchem-fragalysis-2/maxwin/BulkDock/SCRATCH/505732/C1529-P114/C1529-P114.minimised.mol

>  <scratch_subdir>  (178) 
/opt/xchem-fragalysis-2/maxwin/BulkDock/SCRATCH/505732/C1529-P114

>  <fragmenstein_runtime>  (178) 
6.97727632522583

>  <fragmenstein_outcome>  (178) 
too moved

>  <fragmenstein_mode>  (178) 
expansion

>  <fragmenstein_error>  (178) 


$$$$
C1532-P8
     RDKit          3D

 54 56  0  0  0  0  0  0  0  0999 V2000
   17.2671   -3.6461   17.5136 C   0  0  0  0  0  0  0  0  0  0  0  0
   17.2383   -2.3712   18.3248 C   0  0  0  0  0  0  0  0  0  0  0  0
   17.4771   -0.8651   17.4165 S   0  0  0  0  0  0  0  0  0  0  0  0
   18.6948   -0.9857   16.6416 O   0  0  0  0  0  0  0  0  0  0  0  0
   17.3056    0.2267   18.3542 O   0  0  0  0  0  0  0  0  0  0  0  0
   16.1921   -0.8593   16.3622 N   0  0  0  0  0  0  0  0  0  0  0  0
   16.2669   -1.6115   15.1160 C   0  0  0  0  0  0  0  0  0  0  0  0
   14.8898   -2.1820   14.7911 C   0  0  0  0  0  0  0  0  0  0  0  0
   13.6931   -1.2791   15.2131 C   0  0  0  0  0  0  0  0  0  0  0  0
   12.4801   -1.5426   14.2895 C   0  0  0  0  0  0  0  0  0  0  0  0
   11.7259   -2.7490   14.8541 C   0  0  0  0  0  0  0  0  0  0  0  0
   12.3837   -3.0733   16.1736 C   0  0  0  0  0  0  0  0  0  0  0  0
   13.0886   -1.7784   16.5605 C   0  0  0  0  0  0  0  0  0  0  0  0
   14.0083   -2.0559   17.5943 O   0  0  0  0  0  0  0  0  0  0  0  0
   14.2859    0.1896   15.2073 C   0  0  0  0  0  0  0  0  0  0  0  0
   13.2860    1.3638   15.0968 C   0  0  0  0  0  0  0  0  0  0  0  0
   12.8974    1.6124   13.5829 C   0  0  0  0  0  0  0  0  0  0  0  0
   13.4052    2.8376   12.9259 N   0  0  0  0  0  0  0  0  0  0  0  0
   12.4919    3.9549   13.1601 C   0  0  0  0  0  0  0  0  0  0  0  0
   14.7375    3.1614   13.4530 C   0  0  0  0  0  0  0  0  0  0  0  0
   14.7662    3.3513   14.9870 C   0  0  0  0  0  0  0  0  0  0  0  0
   13.7375    2.6082   15.7281 N   0  0  0  0  0  0  0  0  0  0  0  0
   15.2933    0.3046   16.3622 C   0  0  0  0  0  0  0  0  0  0  0  0
   16.3656   -3.7579   16.9087 H   0  0  0  0  0  0  0  0  0  0  0  0
   18.1406   -3.6903   16.8568 H   0  0  0  0  0  0  0  0  0  0  0  0
   17.3068   -4.5115   18.1835 H   0  0  0  0  0  0  0  0  0  0  0  0
   16.3027   -2.2822   18.8842 H   0  0  0  0  0  0  0  0  0  0  0  0
   18.0506   -2.3975   19.0604 H   0  0  0  0  0  0  0  0  0  0  0  0
   16.9917   -2.4283   15.1571 H   0  0  0  0  0  0  0  0  0  0  0  0
   16.6216   -0.9551   14.3117 H   0  0  0  0  0  0  0  0  0  0  0  0
   14.8393   -3.1561   15.2796 H   0  0  0  0  0  0  0  0  0  0  0  0
   14.8689   -2.3662   13.7102 H   0  0  0  0  0  0  0  0  0  0  0  0
   11.7815   -0.7013   14.2924 H   0  0  0  0  0  0  0  0  0  0  0  0
   12.7744   -1.7095   13.2489 H   0  0  0  0  0  0  0  0  0  0  0  0
   10.6731   -2.4857   15.0066 H   0  0  0  0  0  0  0  0  0  0  0  0
   11.7414   -3.5881   14.1582 H   0  0  0  0  0  0  0  0  0  0  0  0
   13.0827   -3.9104   16.0806 H   0  0  0  0  0  0  0  0  0  0  0  0
   11.6674   -3.4051   16.9177 H   0  0  0  0  0  0  0  0  0  0  0  0
   12.3666   -1.0426   16.9293 H   0  0  0  0  0  0  0  0  0  0  0  0
   13.5750   -2.6406   18.2409 H   0  0  0  0  0  0  0  0  0  0  0  0
   14.8823    0.2770   14.2875 H   0  0  0  0  0  0  0  0  0  0  0  0
   12.3706    1.0812   15.6301 H   0  0  0  0  0  0  0  0  0  0  0  0
   13.2391    0.7731   12.9652 H   0  0  0  0  0  0  0  0  0  0  0  0
   11.8020    1.5876   13.4994 H   0  0  0  0  0  0  0  0  0  0  0  0
   12.8851    4.8732   12.7086 H   0  0  0  0  0  0  0  0  0  0  0  0
   11.5342    3.7609   12.6623 H   0  0  0  0  0  0  0  0  0  0  0  0
   12.2776    4.1590   14.2136 H   0  0  0  0  0  0  0  0  0  0  0  0
   15.4204    2.3461   13.1811 H   0  0  0  0  0  0  0  0  0  0  0  0
   15.1390    4.0557   12.9604 H   0  0  0  0  0  0  0  0  0  0  0  0
   14.6151    4.4136   15.2132 H   0  0  0  0  0  0  0  0  0  0  0  0
   15.7673    3.1051   15.3534 H   0  0  0  0  0  0  0  0  0  0  0  0
   13.9802    2.5137   16.7116 H   0  0  0  0  0  0  0  0  0  0  0  0
   15.9171    1.1926   16.2393 H   0  0  0  0  0  0  0  0  0  0  0  0
   14.7751    0.3779   17.3242 H   0  0  0  0  0  0  0  0  0  0  0  0
  1  2  1  0
  2  3  1  0
  3  4  2  0
  3  5  2  0
  3  6  1  0
  6  7  1  0
  7  8  1  0
  8  9  1  0
  9 10  1  0
 10 11  1  0
 11 12  1  0
 12 13  1  0
 13 14  1  0
  9 15  1  0
 15 16  1  0
 16 17  1  0
 17 18  1  0
 18 19  1  0
 18 20  1  0
 20 21  1  0
 21 22  1  0
 15 23  1  0
 23  6  1  0
 13  9  1  0
 22 16  1  0
  1 24  1  0
  1 25  1  0
  1 26  1  0
  2 27  1  0
  2 28  1  0
  7 29  1  0
  7 30  1  0
  8 31  1  0
  8 32  1  0
 10 33  1  0
 10 34  1  0
 11 35  1  0
 11 36  1  0
 12 37  1  0
 12 38  1  0
 13 39  1  0
 14 40  1  0
 15 41  1  0
 16 42  1  0
 17 43  1  0
 17 44  1  0
 19 45  1  0
 19 46  1  0
 19 47  1  0
 20 48  1  0
 20 49  1  0
 21 50  1  0
 21 51  1  0
 22 52  1  0
 23 53  1  0
 23 54  1  0
M  END
>  <Energy>  (179) 
79.968834902578124

>  <compound_id>  (179) 
1532

>  <target_id>  (179) 
1

>  <reference_id>  (179) 
8

>  <inspiration_ids>  (179) 
[8, 120]

>  <energy_score>  (179) 
-75.03364029051917

>  <distance_score>  (179) 
1.9763243321115245

>  <path>  (179) 
/opt/xchem-fragalysis-2/maxwin/BulkDock/SCRATCH/505732/C1532-P8/C1532-P8.minimised.mol

>  <scratch_subdir>  (179) 
/opt/xchem-fragalysis-2/maxwin/BulkDock/SCRATCH/505732/C1532-P8

>  <fragmenstein_runtime>  (179) 
9.31556510925293

>  <fragmenstein_outcome>  (179) 
too moved

>  <fragmenstein_mode>  (179) 
expansion

>  <fragmenstein_error>  (179) 


$$$$
C1532-P120
     RDKit          3D

 54 56  0  0  0  0  0  0  0  0999 V2000
   16.9686   -3.5110   17.8591 C   0  0  0  0  0  0  0  0  0  0  0  0
   18.0138   -2.4807   17.4957 C   0  0  0  0  0  0  0  0  0  0  0  0
   17.4068   -0.8066   17.4211 S   0  0  0  0  0  0  0  0  0  0  0  0
   18.3667   -0.0290   16.6625 O   0  0  0  0  0  0  0  0  0  0  0  0
   17.0289   -0.4029   18.7590 O   0  0  0  0  0  0  0  0  0  0  0  0
   16.0265   -0.9345   16.4900 N   0  0  0  0  0  0  0  0  0  0  0  0
   16.1337   -1.5106   15.1498 C   0  0  0  0  0  0  0  0  0  0  0  0
   14.7815   -2.1174   14.7827 C   0  0  0  0  0  0  0  0  0  0  0  0
   13.5586   -1.2894   15.2730 C   0  0  0  0  0  0  0  0  0  0  0  0
   12.3550   -1.5129   14.3288 C   0  0  0  0  0  0  0  0  0  0  0  0
   11.6326   -2.7789   14.7970 C   0  0  0  0  0  0  0  0  0  0  0  0
   12.2809   -3.1770   16.1000 C   0  0  0  0  0  0  0  0  0  0  0  0
   12.9660   -1.9060   16.5751 C   0  0  0  0  0  0  0  0  0  0  0  0
   13.8858   -2.2564   17.5836 O   0  0  0  0  0  0  0  0  0  0  0  0
   14.0993    0.1960   15.3965 C   0  0  0  0  0  0  0  0  0  0  0  0
   13.0433    1.3261   15.4265 C   0  0  0  0  0  0  0  0  0  0  0  0
   12.7264    1.8482   13.9836 C   0  0  0  0  0  0  0  0  0  0  0  0
   13.7636    2.7290   13.4186 N   0  0  0  0  0  0  0  0  0  0  0  0
   13.3612    3.2218   12.1155 C   0  0  0  0  0  0  0  0  0  0  0  0
   14.0004    3.8664   14.3155 C   0  0  0  0  0  0  0  0  0  0  0  0
   14.3551    3.3921   15.7329 C   0  0  0  0  0  0  0  0  0  0  0  0
   13.3836    2.4499   16.3232 N   0  0  0  0  0  0  0  0  0  0  0  0
   15.1140    0.2379   16.5568 C   0  0  0  0  0  0  0  0  0  0  0  0
   16.4462   -3.2375   18.7811 H   0  0  0  0  0  0  0  0  0  0  0  0
   16.2221   -3.6344   17.0721 H   0  0  0  0  0  0  0  0  0  0  0  0
   17.4411   -4.4863   18.0144 H   0  0  0  0  0  0  0  0  0  0  0  0
   18.8066   -2.4764   18.2521 H   0  0  0  0  0  0  0  0  0  0  0  0
   18.4833   -2.7211   16.5377 H   0  0  0  0  0  0  0  0  0  0  0  0
   16.8849   -2.3021   15.0940 H   0  0  0  0  0  0  0  0  0  0  0  0
   16.4483   -0.7494   14.4264 H   0  0  0  0  0  0  0  0  0  0  0  0
   14.7718   -3.1200   15.2142 H   0  0  0  0  0  0  0  0  0  0  0  0
   14.7613   -2.2403   13.6931 H   0  0  0  0  0  0  0  0  0  0  0  0
   12.6570   -1.5912   13.2806 H   0  0  0  0  0  0  0  0  0  0  0  0
   11.6322   -0.6945   14.3901 H   0  0  0  0  0  0  0  0  0  0  0  0
   10.5703   -2.5600   14.9541 H   0  0  0  0  0  0  0  0  0  0  0  0
   11.6823   -3.5669   14.0442 H   0  0  0  0  0  0  0  0  0  0  0  0
   12.9956   -3.9939   15.9690 H   0  0  0  0  0  0  0  0  0  0  0  0
   11.5586   -3.5648   16.8119 H   0  0  0  0  0  0  0  0  0  0  0  0
   12.2352   -1.2080   16.9901 H   0  0  0  0  0  0  0  0  0  0  0  0
   13.4320   -2.8054   18.2455 H   0  0  0  0  0  0  0  0  0  0  0  0
   14.6717    0.3936   14.4789 H   0  0  0  0  0  0  0  0  0  0  0  0
   12.1181    0.9055   15.8367 H   0  0  0  0  0  0  0  0  0  0  0  0
   12.5816    1.0001   13.3064 H   0  0  0  0  0  0  0  0  0  0  0  0
   11.7666    2.3834   14.0238 H   0  0  0  0  0  0  0  0  0  0  0  0
   12.4332    3.8049   12.1498 H   0  0  0  0  0  0  0  0  0  0  0  0
   14.1442    3.8521   11.6787 H   0  0  0  0  0  0  0  0  0  0  0  0
   13.2112    2.3894   11.4182 H   0  0  0  0  0  0  0  0  0  0  0  0
   14.8287    4.4774   13.9365 H   0  0  0  0  0  0  0  0  0  0  0  0
   13.1139    4.5131   14.3695 H   0  0  0  0  0  0  0  0  0  0  0  0
   14.4278    4.2637   16.3938 H   0  0  0  0  0  0  0  0  0  0  0  0
   15.3558    2.9531   15.7107 H   0  0  0  0  0  0  0  0  0  0  0  0
   12.5319    2.9788   16.5205 H   0  0  0  0  0  0  0  0  0  0  0  0
   15.7312    1.1359   16.4994 H   0  0  0  0  0  0  0  0  0  0  0  0
   14.6000    0.2370   17.5244 H   0  0  0  0  0  0  0  0  0  0  0  0
  1  2  1  0
  2  3  1  0
  3  4  2  0
  3  5  2  0
  3  6  1  0
  6  7  1  0
  7  8  1  0
  8  9  1  0
  9 10  1  0
 10 11  1  0
 11 12  1  0
 12 13  1  0
 13 14  1  0
  9 15  1  0
 15 16  1  0
 16 17  1  0
 17 18  1  0
 18 19  1  0
 18 20  1  0
 20 21  1  0
 21 22  1  0
 15 23  1  0
 23  6  1  0
 13  9  1  0
 22 16  1  0
  1 24  1  0
  1 25  1  0
  1 26  1  0
  2 27  1  0
  2 28  1  0
  7 29  1  0
  7 30  1  0
  8 31  1  0
  8 32  1  0
 10 33  1  0
 10 34  1  0
 11 35  1  0
 11 36  1  0
 12 37  1  0
 12 38  1  0
 13 39  1  0
 14 40  1  0
 15 41  1  0
 16 42  1  0
 17 43  1  0
 17 44  1  0
 19 45  1  0
 19 46  1  0
 19 47  1  0
 20 48  1  0
 20 49  1  0
 21 50  1  0
 21 51  1  0
 22 52  1  0
 23 53  1  0
 23 54  1  0
M  END
>  <Energy>  (180) 
69.968147345067337

>  <compound_id>  (180) 
1532

>  <target_id>  (180) 
1

>  <reference_id>  (180) 
120

>  <inspiration_ids>  (180) 
[8, 120]

>  <energy_score>  (180) 
-85.03432784802808

>  <distance_score>  (180) 
2.0258987958073438

>  <path>  (180) 
/opt/xchem-fragalysis-2/maxwin/BulkDock/SCRATCH/505732/C1532-P120/C1532-P120.minimised.mol

>  <scratch_subdir>  (180) 
/opt/xchem-fragalysis-2/maxwin/BulkDock/SCRATCH/505732/C1532-P120

>  <fragmenstein_runtime>  (180) 
9.152928590774536

>  <fragmenstein_outcome>  (180) 
too moved

>  <fragmenstein_mode>  (180) 
expansion

>  <fragmenstein_error>  (180) 


$$$$
C1533-P8
     RDKit          3D

 38 38  0  0  0  0  0  0  0  0999 V2000
   17.7238   -3.3114   17.3867 C   0  0  0  0  0  0  0  0  0  0  0  0
   17.7654   -2.3533   16.2143 C   0  0  0  0  0  0  0  0  0  0  0  0
   16.7162   -0.9292   16.4328 S   0  0  0  0  0  0  0  0  0  0  0  0
   16.5588   -0.2578   15.1580 O   0  0  0  0  0  0  0  0  0  0  0  0
   17.1688   -0.2072   17.6013 O   0  0  0  0  0  0  0  0  0  0  0  0
   15.2237   -1.6321   16.7735 N   0  0  0  0  0  0  0  0  0  0  0  0
   14.2702   -0.7620   17.4700 C   0  0  0  0  0  0  0  0  0  0  0  0
   13.3251   -0.1158   16.4925 C   0  0  0  0  0  0  0  0  0  0  0  0
   12.5261   -1.1228   15.6565 C   0  0  0  0  0  0  0  0  0  0  0  0
   12.3227   -0.5684   14.2269 C   0  0  0  0  0  0  0  0  0  0  0  0
   11.6699   -1.5646   13.4954 O   0  0  0  0  0  0  0  0  0  0  0  0
   13.5168   -0.2643   13.5381 O   0  0  0  0  0  0  0  0  0  0  0  0
   11.4825    0.5774   14.3488 O   0  0  0  0  0  0  0  0  0  0  0  0
   11.5224    1.4395   13.2230 C   0  0  0  0  0  0  0  0  0  0  0  0
   13.1149   -2.5492   15.6440 C   0  0  0  0  0  0  0  0  0  0  0  0
   12.4111   -3.4860   16.5629 N   0  0  0  0  0  0  0  0  0  0  0  0
   13.1074   -3.5154   17.8298 O   0  0  0  0  0  0  0  0  0  0  0  0
   14.6558   -2.5426   15.7350 C   0  0  0  0  0  0  0  0  0  0  0  0
   18.0098   -2.8080   18.3158 H   0  0  0  0  0  0  0  0  0  0  0  0
   18.4226   -4.1375   17.2214 H   0  0  0  0  0  0  0  0  0  0  0  0
   16.7301   -3.7418   17.5354 H   0  0  0  0  0  0  0  0  0  0  0  0
   18.7814   -1.9699   16.0747 H   0  0  0  0  0  0  0  0  0  0  0  0
   17.4670   -2.8555   15.2893 H   0  0  0  0  0  0  0  0  0  0  0  0
   14.7813    0.0214   18.0398 H   0  0  0  0  0  0  0  0  0  0  0  0
   13.7576   -1.3440   18.2256 H   0  0  0  0  0  0  0  0  0  0  0  0
   12.6339    0.5432   17.0203 H   0  0  0  0  0  0  0  0  0  0  0  0
   13.9053    0.5684   15.8633 H   0  0  0  0  0  0  0  0  0  0  0  0
   11.5234   -1.1917   16.1040 H   0  0  0  0  0  0  0  0  0  0  0  0
   10.7369   -1.2834   13.4229 H   0  0  0  0  0  0  0  0  0  0  0  0
   14.2807   -0.3263   14.1314 H   0  0  0  0  0  0  0  0  0  0  0  0
   10.7410    2.1946   13.3467 H   0  0  0  0  0  0  0  0  0  0  0  0
   12.4837    1.9592   13.1682 H   0  0  0  0  0  0  0  0  0  0  0  0
   11.3293    0.8980   12.2958 H   0  0  0  0  0  0  0  0  0  0  0  0
   12.8829   -2.9937   14.6760 H   0  0  0  0  0  0  0  0  0  0  0  0
   12.5765   -4.4411   16.2249 H   0  0  0  0  0  0  0  0  0  0  0  0
   12.3900   -3.6791   18.4825 H   0  0  0  0  0  0  0  0  0  0  0  0
   15.0491   -2.2712   14.7489 H   0  0  0  0  0  0  0  0  0  0  0  0
   15.0183   -3.5575   15.9347 H   0  0  0  0  0  0  0  0  0  0  0  0
  1  2  1  0
  2  3  1  0
  3  4  2  0
  3  5  2  0
  3  6  1  0
  6  7  1  0
  7  8  1  0
  8  9  1  0
  9 10  1  0
 10 11  1  0
 10 12  1  0
 10 13  1  0
 13 14  1  0
  9 15  1  0
 15 16  1  0
 16 17  1  0
 15 18  1  0
 18  6  1  0
  1 19  1  0
  1 20  1  0
  1 21  1  0
  2 22  1  0
  2 23  1  0
  7 24  1  0
  7 25  1  0
  8 26  1  0
  8 27  1  0
  9 28  1  0
 11 29  1  0
 12 30  1  0
 14 31  1  0
 14 32  1  0
 14 33  1  0
 15 34  1  0
 16 35  1  0
 17 36  1  0
 18 37  1  0
 18 38  1  0
M  END
>  <Energy>  (181) 
-75.417360477378239

>  <compound_id>  (181) 
1533

>  <target_id>  (181) 
1

>  <reference_id>  (181) 
8

>  <inspiration_ids>  (181) 
[8, 122]

>  <energy_score>  (181) 
-43.24757833998969

>  <distance_score>  (181) 
1.1610141093645643

>  <path>  (181) 
/opt/xchem-fragalysis-2/maxwin/BulkDock/SCRATCH/505732/C1533-P8/C1533-P8.minimised.mol

>  <scratch_subdir>  (181) 
/opt/xchem-fragalysis-2/maxwin/BulkDock/SCRATCH/505732/C1533-P8

>  <fragmenstein_runtime>  (181) 
1.6519885063171387

>  <fragmenstein_outcome>  (181) 
too moved

>  <fragmenstein_mode>  (181) 
expansion

>  <fragmenstein_error>  (181) 


$$$$
C1533-P122
     RDKit          3D

 38 38  0  0  0  0  0  0  0  0999 V2000
   17.9105   -3.8126   16.3225 C   0  0  0  0  0  0  0  0  0  0  0  0
   17.9517   -2.3016   16.3982 C   0  0  0  0  0  0  0  0  0  0  0  0
   16.7801   -1.6330   17.5611 S   0  0  0  0  0  0  0  0  0  0  0  0
   17.3195   -0.3841   18.0584 O   0  0  0  0  0  0  0  0  0  0  0  0
   16.3572   -2.6708   18.4777 O   0  0  0  0  0  0  0  0  0  0  0  0
   15.4431   -1.2413   16.5760 N   0  0  0  0  0  0  0  0  0  0  0  0
   14.4212   -0.5492   17.3814 C   0  0  0  0  0  0  0  0  0  0  0  0
   13.4331    0.1335   16.4755 C   0  0  0  0  0  0  0  0  0  0  0  0
   13.1424   -0.5969   15.1741 C   0  0  0  0  0  0  0  0  0  0  0  0
   11.7583   -0.2158   14.6278 C   0  0  0  0  0  0  0  0  0  0  0  0
   11.6800   -0.7788   13.3573 O   0  0  0  0  0  0  0  0  0  0  0  0
   11.6237    1.1867   14.4809 O   0  0  0  0  0  0  0  0  0  0  0  0
   10.7499   -0.7416   15.4893 O   0  0  0  0  0  0  0  0  0  0  0  0
    9.4811   -0.1246   15.3121 C   0  0  0  0  0  0  0  0  0  0  0  0
   13.4345   -2.1126   15.2217 C   0  0  0  0  0  0  0  0  0  0  0  0
   12.4352   -3.0149   15.8350 N   0  0  0  0  0  0  0  0  0  0  0  0
   12.5597   -2.9001   17.2641 O   0  0  0  0  0  0  0  0  0  0  0  0
   14.8705   -2.3739   15.7682 C   0  0  0  0  0  0  0  0  0  0  0  0
   18.1329   -4.2642   17.2948 H   0  0  0  0  0  0  0  0  0  0  0  0
   18.6630   -4.1704   15.6123 H   0  0  0  0  0  0  0  0  0  0  0  0
   16.9405   -4.1899   15.9928 H   0  0  0  0  0  0  0  0  0  0  0  0
   18.9420   -1.9871   16.7462 H   0  0  0  0  0  0  0  0  0  0  0  0
   17.7896   -1.8310   15.4247 H   0  0  0  0  0  0  0  0  0  0  0  0
   13.9437   -1.2467   18.0681 H   0  0  0  0  0  0  0  0  0  0  0  0
   14.8750    0.2271   18.0088 H   0  0  0  0  0  0  0  0  0  0  0  0
   12.5210    0.3151   17.0275 H   0  0  0  0  0  0  0  0  0  0  0  0
   13.8218    1.1315   16.2299 H   0  0  0  0  0  0  0  0  0  0  0  0
   13.8733   -0.1995   14.4492 H   0  0  0  0  0  0  0  0  0  0  0  0
   10.7745   -1.1437   13.3110 H   0  0  0  0  0  0  0  0  0  0  0  0
   12.5174    1.5613   14.4930 H   0  0  0  0  0  0  0  0  0  0  0  0
    9.4593    0.8314   15.8441 H   0  0  0  0  0  0  0  0  0  0  0  0
    9.2367    0.0328   14.2606 H   0  0  0  0  0  0  0  0  0  0  0  0
    8.7209   -0.7745   15.7527 H   0  0  0  0  0  0  0  0  0  0  0  0
   13.4481   -2.4310   14.1731 H   0  0  0  0  0  0  0  0  0  0  0  0
   11.4999   -2.6303   15.6515 H   0  0  0  0  0  0  0  0  0  0  0  0
   12.5264   -3.8301   17.5723 H   0  0  0  0  0  0  0  0  0  0  0  0
   15.5293   -2.5138   14.9023 H   0  0  0  0  0  0  0  0  0  0  0  0
   14.8948   -3.3057   16.3437 H   0  0  0  0  0  0  0  0  0  0  0  0
  1  2  1  0
  2  3  1  0
  3  4  2  0
  3  5  2  0
  3  6  1  0
  6  7  1  0
  7  8  1  0
  8  9  1  0
  9 10  1  0
 10 11  1  0
 10 12  1  0
 10 13  1  0
 13 14  1  0
  9 15  1  0
 15 16  1  0
 16 17  1  0
 15 18  1  0
 18  6  1  0
  1 19  1  0
  1 20  1  0
  1 21  1  0
  2 22  1  0
  2 23  1  0
  7 24  1  0
  7 25  1  0
  8 26  1  0
  8 27  1  0
  9 28  1  0
 11 29  1  0
 12 30  1  0
 14 31  1  0
 14 32  1  0
 14 33  1  0
 15 34  1  0
 16 35  1  0
 17 36  1  0
 18 37  1  0
 18 38  1  0
M  END
>  <Energy>  (182) 
-77.372864459737983

>  <compound_id>  (182) 
1533

>  <target_id>  (182) 
1

>  <reference_id>  (182) 
122

>  <inspiration_ids>  (182) 
[8, 122]

>  <energy_score>  (182) 
-45.20308232234921

>  <distance_score>  (182) 
1.4742595191874834

>  <path>  (182) 
/opt/xchem-fragalysis-2/maxwin/BulkDock/SCRATCH/505732/C1533-P122/C1533-P122.minimised.mol

>  <scratch_subdir>  (182) 
/opt/xchem-fragalysis-2/maxwin/BulkDock/SCRATCH/505732/C1533-P122

>  <fragmenstein_runtime>  (182) 
1.8908448219299316

>  <fragmenstein_outcome>  (182) 
too moved

>  <fragmenstein_mode>  (182) 
expansion

>  <fragmenstein_error>  (182) 


$$$$
C1534-P8
     RDKit          3D

 26 27  0  0  0  0  0  0  0  0999 V2000
   14.1159   -3.2622   19.6589 C   0  0  0  0  0  0  0  0  0  0  0  0
   13.9002   -2.6419   18.3938 O   0  0  0  0  0  0  0  0  0  0  0  0
   15.0397   -1.9123   17.9097 C   0  0  0  0  0  0  0  0  0  0  0  0
   15.8367   -2.7786   16.9391 C   0  0  0  0  0  0  0  0  0  0  0  0
   16.6049   -3.8846   17.6049 C   0  0  0  0  0  0  0  0  0  0  0  0
   16.5995   -5.0665   17.3082 O   0  0  0  0  0  0  0  0  0  0  0  0
   17.4148   -3.4358   18.5841 O   0  0  0  0  0  0  0  0  0  0  0  0
   14.8960   -3.3010   15.8431 C   0  0  0  0  0  0  0  0  0  0  0  0
   13.7279   -2.3665   15.5115 C   0  0  0  0  0  0  0  0  0  0  0  0
   14.1228   -0.9862   15.7310 N   0  0  0  0  0  0  0  0  0  0  0  0
   13.1665   -0.0372   15.5432 C   0  0  0  0  0  0  0  0  0  0  0  0
   12.8476    0.6829   16.5671 N   0  0  0  0  0  0  0  0  0  0  0  0
   13.6395    0.1645   17.6491 O   0  0  0  0  0  0  0  0  0  0  0  0
   14.6350   -0.6783   17.0645 C   0  0  0  0  0  0  0  0  0  0  0  0
   13.1903   -3.7577   19.9607 H   0  0  0  0  0  0  0  0  0  0  0  0
   14.3708   -2.5132   20.4144 H   0  0  0  0  0  0  0  0  0  0  0  0
   14.8975   -4.0216   19.5998 H   0  0  0  0  0  0  0  0  0  0  0  0
   15.6334   -1.5590   18.7616 H   0  0  0  0  0  0  0  0  0  0  0  0
   16.6093   -2.1631   16.4537 H   0  0  0  0  0  0  0  0  0  0  0  0
   17.8965   -4.2383   18.8821 H   0  0  0  0  0  0  0  0  0  0  0  0
   15.5201   -3.4345   14.9507 H   0  0  0  0  0  0  0  0  0  0  0  0
   14.4935   -4.2850   16.1067 H   0  0  0  0  0  0  0  0  0  0  0  0
   13.4233   -2.4940   14.4674 H   0  0  0  0  0  0  0  0  0  0  0  0
   12.8513   -2.6205   16.1213 H   0  0  0  0  0  0  0  0  0  0  0  0
   12.7028    0.0219   14.5459 H   0  0  0  0  0  0  0  0  0  0  0  0
   15.5303   -0.0549   16.9329 H   0  0  0  0  0  0  0  0  0  0  0  0
  1  2  1  0
  2  3  1  0
  3  4  1  0
  4  5  1  0
  5  6  2  0
  5  7  1  0
  4  8  1  0
  8  9  1  0
  9 10  1  0
 10 11  1  0
 11 12  2  0
 12 13  1  0
 13 14  1  0
 14  3  1  0
 14 10  1  0
  1 15  1  0
  1 16  1  0
  1 17  1  0
  3 18  1  0
  4 19  1  0
  7 20  1  0
  8 21  1  0
  8 22  1  0
  9 23  1  0
  9 24  1  0
 11 25  1  0
 14 26  1  0
M  END
>  <Energy>  (183) 
15.288677801311044

>  <compound_id>  (183) 
1534

>  <target_id>  (183) 
1

>  <reference_id>  (183) 
8

>  <inspiration_ids>  (183) 
[8, 124]

>  <energy_score>  (183) 
-30.63969750524221

>  <distance_score>  (183) 
2.4897878877783217

>  <path>  (183) 
/opt/xchem-fragalysis-2/maxwin/BulkDock/SCRATCH/505732/C1534-P8/C1534-P8.minimised.mol

>  <scratch_subdir>  (183) 
/opt/xchem-fragalysis-2/maxwin/BulkDock/SCRATCH/505732/C1534-P8

>  <fragmenstein_runtime>  (183) 
2.2064380645751953

>  <fragmenstein_outcome>  (183) 
too moved

>  <fragmenstein_mode>  (183) 
expansion

>  <fragmenstein_error>  (183) 


$$$$
C1534-P124
     RDKit          3D

 26 27  0  0  0  0  0  0  0  0999 V2000
   14.1380   -3.3781   16.5550 C   0  0  0  0  0  0  0  0  0  0  0  0
   14.0760   -2.6401   15.3411 O   0  0  0  0  0  0  0  0  0  0  0  0
   15.3093   -1.9926   14.9844 C   0  0  0  0  0  0  0  0  0  0  0  0
   15.2453   -1.4921   13.5161 C   0  0  0  0  0  0  0  0  0  0  0  0
   15.6755   -2.4576   12.4764 C   0  0  0  0  0  0  0  0  0  0  0  0
   15.1155   -2.7321   11.4296 O   0  0  0  0  0  0  0  0  0  0  0  0
   16.8828   -2.9694   12.7867 O   0  0  0  0  0  0  0  0  0  0  0  0
   13.8848   -0.8586   13.2614 C   0  0  0  0  0  0  0  0  0  0  0  0
   13.5370    0.0604   14.4289 C   0  0  0  0  0  0  0  0  0  0  0  0
   14.7425    0.4318   15.1913 N   0  0  0  0  0  0  0  0  0  0  0  0
   14.6232    1.2399   16.2716 C   0  0  0  0  0  0  0  0  0  0  0  0
   14.9679    0.7292   17.4143 N   0  0  0  0  0  0  0  0  0  0  0  0
   15.3191   -0.6337   17.1274 O   0  0  0  0  0  0  0  0  0  0  0  0
   15.5443   -0.6739   15.7252 C   0  0  0  0  0  0  0  0  0  0  0  0
   13.2299   -3.9833   16.6286 H   0  0  0  0  0  0  0  0  0  0  0  0
   14.1661   -2.7156   17.4212 H   0  0  0  0  0  0  0  0  0  0  0  0
   15.0034   -4.0461   16.5613 H   0  0  0  0  0  0  0  0  0  0  0  0
   16.1408   -2.6848   15.1559 H   0  0  0  0  0  0  0  0  0  0  0  0
   16.0005   -0.6995   13.3703 H   0  0  0  0  0  0  0  0  0  0  0  0
   16.9018   -3.7650   12.2134 H   0  0  0  0  0  0  0  0  0  0  0  0
   13.9252   -0.2765   12.3319 H   0  0  0  0  0  0  0  0  0  0  0  0
   13.0988   -1.6085   13.1152 H   0  0  0  0  0  0  0  0  0  0  0  0
   13.0514    0.9621   14.0419 H   0  0  0  0  0  0  0  0  0  0  0  0
   12.8323   -0.4654   15.0742 H   0  0  0  0  0  0  0  0  0  0  0  0
   14.2159    2.2502   16.1090 H   0  0  0  0  0  0  0  0  0  0  0  0
   16.6014   -0.4044   15.5808 H   0  0  0  0  0  0  0  0  0  0  0  0
  1  2  1  0
  2  3  1  0
  3  4  1  0
  4  5  1  0
  5  6  2  0
  5  7  1  0
  4  8  1  0
  8  9  1  0
  9 10  1  0
 10 11  1  0
 11 12  2  0
 12 13  1  0
 13 14  1  0
 14  3  1  0
 14 10  1  0
  1 15  1  0
  1 16  1  0
  1 17  1  0
  3 18  1  0
  4 19  1  0
  7 20  1  0
  8 21  1  0
  8 22  1  0
  9 23  1  0
  9 24  1  0
 11 25  1  0
 14 26  1  0
M  END
>  <Energy>  (184) 
23.04315311055694

>  <compound_id>  (184) 
1534

>  <target_id>  (184) 
1

>  <reference_id>  (184) 
124

>  <inspiration_ids>  (184) 
[8, 124]

>  <energy_score>  (184) 
-22.88522219599642

>  <distance_score>  (184) 
3.1291315512192135

>  <path>  (184) 
/opt/xchem-fragalysis-2/maxwin/BulkDock/SCRATCH/505732/C1534-P124/C1534-P124.minimised.mol

>  <scratch_subdir>  (184) 
/opt/xchem-fragalysis-2/maxwin/BulkDock/SCRATCH/505732/C1534-P124

>  <fragmenstein_runtime>  (184) 
1.997385025024414

>  <fragmenstein_outcome>  (184) 
too moved

>  <fragmenstein_mode>  (184) 
expansion

>  <fragmenstein_error>  (184) 


$$$$
C1535-P8
     RDKit          3D

 42 43  0  0  0  0  0  0  0  0999 V2000
   15.2810    1.1824   19.9328 C   0  0  0  0  0  0  0  0  0  0  0  0
   15.9254    1.3829   18.5761 C   0  0  0  0  0  0  0  0  0  0  0  0
   14.7667    1.2359   17.2131 S   0  0  0  0  0  0  0  0  0  0  0  0
   15.2472    2.0665   16.1295 O   0  0  0  0  0  0  0  0  0  0  0  0
   13.4077    1.3752   17.6830 O   0  0  0  0  0  0  0  0  0  0  0  0
   14.8874   -0.3595   16.6853 N   0  0  0  0  0  0  0  0  0  0  0  0
   14.8838   -1.4798   17.6422 C   0  0  0  0  0  0  0  0  0  0  0  0
   15.4216   -2.7257   16.9296 C   0  0  0  0  0  0  0  0  0  0  0  0
   15.2973   -2.6215   15.3859 C   0  0  0  0  0  0  0  0  0  0  0  0
   16.4355   -1.8483   14.7095 C   0  0  0  0  0  0  0  0  0  0  0  0
   16.4883   -1.6759   13.4963 O   0  0  0  0  0  0  0  0  0  0  0  0
   17.3647   -1.4198   15.6178 O   0  0  0  0  0  0  0  0  0  0  0  0
   18.3695   -0.6425   14.9034 O   0  0  0  0  0  0  0  0  0  0  0  0
   19.5956   -1.3101   15.1454 C   0  0  0  0  0  0  0  0  0  0  0  0
   13.9233   -1.9958   15.0435 C   0  0  0  0  0  0  0  0  0  0  0  0
   12.7506   -2.7907   15.6917 C   0  0  0  0  0  0  0  0  0  0  0  0
   11.5762   -2.6272   14.7496 C   0  0  0  0  0  0  0  0  0  0  0  0
   12.0399   -1.6416   13.7923 N   0  0  0  0  0  0  0  0  0  0  0  0
   13.4644   -1.8945   13.5777 C   0  0  0  0  0  0  0  0  0  0  0  0
   13.9292   -0.5478   15.5560 C   0  0  0  0  0  0  0  0  0  0  0  0
   16.0353    1.2471   20.7230 H   0  0  0  0  0  0  0  0  0  0  0  0
   14.7835    0.2124   20.0135 H   0  0  0  0  0  0  0  0  0  0  0  0
   14.5285    1.9547   20.1238 H   0  0  0  0  0  0  0  0  0  0  0  0
   16.3350    2.3975   18.5185 H   0  0  0  0  0  0  0  0  0  0  0  0
   16.7542    0.6919   18.3990 H   0  0  0  0  0  0  0  0  0  0  0  0
   13.8847   -1.6439   18.0447 H   0  0  0  0  0  0  0  0  0  0  0  0
   15.5444   -1.2798   18.4883 H   0  0  0  0  0  0  0  0  0  0  0  0
   14.8725   -3.6023   17.2962 H   0  0  0  0  0  0  0  0  0  0  0  0
   16.4627   -2.9043   17.2249 H   0  0  0  0  0  0  0  0  0  0  0  0
   15.4125   -3.6401   15.0163 H   0  0  0  0  0  0  0  0  0  0  0  0
   20.3960   -0.7637   14.6401 H   0  0  0  0  0  0  0  0  0  0  0  0
   19.5571   -2.3285   14.7474 H   0  0  0  0  0  0  0  0  0  0  0  0
   19.8065   -1.3340   16.2186 H   0  0  0  0  0  0  0  0  0  0  0  0
   12.4784   -2.4141   16.6809 H   0  0  0  0  0  0  0  0  0  0  0  0
   12.9864   -3.8529   15.8080 H   0  0  0  0  0  0  0  0  0  0  0  0
   10.6802   -2.2772   15.2688 H   0  0  0  0  0  0  0  0  0  0  0  0
   11.3378   -3.5706   14.2510 H   0  0  0  0  0  0  0  0  0  0  0  0
   11.4613   -1.7022   12.9598 H   0  0  0  0  0  0  0  0  0  0  0  0
   13.9213   -1.0679   13.0245 H   0  0  0  0  0  0  0  0  0  0  0  0
   13.6110   -2.7920   12.9806 H   0  0  0  0  0  0  0  0  0  0  0  0
   14.2505    0.1335   14.7570 H   0  0  0  0  0  0  0  0  0  0  0  0
   12.9213   -0.2416   15.8634 H   0  0  0  0  0  0  0  0  0  0  0  0
  1  2  1  0
  2  3  1  0
  3  4  2  0
  3  5  2  0
  3  6  1  0
  6  7  1  0
  7  8  1  0
  8  9  1  0
  9 10  1  0
 10 11  2  0
 10 12  1  0
 12 13  1  0
 13 14  1  0
  9 15  1  0
 15 16  1  0
 16 17  1  0
 17 18  1  0
 18 19  1  0
 15 20  1  0
 20  6  1  0
 19 15  1  0
  1 21  1  0
  1 22  1  0
  1 23  1  0
  2 24  1  0
  2 25  1  0
  7 26  1  0
  7 27  1  0
  8 28  1  0
  8 29  1  0
  9 30  1  0
 14 31  1  0
 14 32  1  0
 14 33  1  0
 16 34  1  0
 16 35  1  0
 17 36  1  0
 17 37  1  0
 18 38  1  0
 19 39  1  0
 19 40  1  0
 20 41  1  0
 20 42  1  0
M  END
>  <Energy>  (185) 
-15.075391699306314

>  <compound_id>  (185) 
1535

>  <target_id>  (185) 
1

>  <reference_id>  (185) 
8

>  <inspiration_ids>  (185) 
[8, 146]

>  <energy_score>  (185) 
-56.37584304146655

>  <distance_score>  (185) 
1.691713306319411

>  <path>  (185) 
/opt/xchem-fragalysis-2/maxwin/BulkDock/SCRATCH/505732/C1535-P8/C1535-P8.minimised.mol

>  <scratch_subdir>  (185) 
/opt/xchem-fragalysis-2/maxwin/BulkDock/SCRATCH/505732/C1535-P8

>  <fragmenstein_runtime>  (185) 
3.550121545791626

>  <fragmenstein_outcome>  (185) 
too moved

>  <fragmenstein_mode>  (185) 
expansion

>  <fragmenstein_error>  (185) 


$$$$
C1535-P146
     RDKit          3D

 42 43  0  0  0  0  0  0  0  0999 V2000
   17.7356    1.5905   18.8511 C   0  0  0  0  0  0  0  0  0  0  0  0
   16.8310    0.4902   18.3313 C   0  0  0  0  0  0  0  0  0  0  0  0
   16.3806    0.7765   16.6160 S   0  0  0  0  0  0  0  0  0  0  0  0
   17.4953    0.4100   15.7792 O   0  0  0  0  0  0  0  0  0  0  0  0
   15.8164    2.0958   16.4857 O   0  0  0  0  0  0  0  0  0  0  0  0
   15.1499   -0.3807   16.3356 N   0  0  0  0  0  0  0  0  0  0  0  0
   15.5221   -1.7900   16.6588 C   0  0  0  0  0  0  0  0  0  0  0  0
   15.0939   -2.8668   15.6790 C   0  0  0  0  0  0  0  0  0  0  0  0
   14.7099   -2.3331   14.2901 C   0  0  0  0  0  0  0  0  0  0  0  0
   15.9152   -1.9964   13.3781 C   0  0  0  0  0  0  0  0  0  0  0  0
   15.9253   -1.1035   12.5376 O   0  0  0  0  0  0  0  0  0  0  0  0
   16.9754   -2.8537   13.5059 O   0  0  0  0  0  0  0  0  0  0  0  0
   17.7187   -2.4540   14.7015 O   0  0  0  0  0  0  0  0  0  0  0  0
   18.8934   -1.7819   14.2587 C   0  0  0  0  0  0  0  0  0  0  0  0
   13.6920   -1.2091   14.5071 C   0  0  0  0  0  0  0  0  0  0  0  0
   12.4953   -1.5912   15.4012 C   0  0  0  0  0  0  0  0  0  0  0  0
   11.6278   -2.4226   14.4961 C   0  0  0  0  0  0  0  0  0  0  0  0
   11.7555   -1.7530   13.2079 N   0  0  0  0  0  0  0  0  0  0  0  0
   12.9219   -0.8451   13.2410 C   0  0  0  0  0  0  0  0  0  0  0  0
   14.4794   -0.0535   15.0402 C   0  0  0  0  0  0  0  0  0  0  0  0
   18.6473    1.6669   18.2500 H   0  0  0  0  0  0  0  0  0  0  0  0
   18.0236    1.3881   19.8872 H   0  0  0  0  0  0  0  0  0  0  0  0
   17.2324    2.5622   18.8218 H   0  0  0  0  0  0  0  0  0  0  0  0
   17.3475   -0.4711   18.3906 H   0  0  0  0  0  0  0  0  0  0  0  0
   15.9165    0.4395   18.9231 H   0  0  0  0  0  0  0  0  0  0  0  0
   15.0985   -2.0179   17.6448 H   0  0  0  0  0  0  0  0  0  0  0  0
   16.6048   -1.8695   16.7925 H   0  0  0  0  0  0  0  0  0  0  0  0
   14.2509   -3.4202   16.1103 H   0  0  0  0  0  0  0  0  0  0  0  0
   15.8768   -3.6319   15.6295 H   0  0  0  0  0  0  0  0  0  0  0  0
   14.1771   -3.0687   13.6920 H   0  0  0  0  0  0  0  0  0  0  0  0
   19.4714   -1.4754   15.1339 H   0  0  0  0  0  0  0  0  0  0  0  0
   18.6314   -0.8991   13.6692 H   0  0  0  0  0  0  0  0  0  0  0  0
   19.5008   -2.4628   13.6557 H   0  0  0  0  0  0  0  0  0  0  0  0
   11.9378   -0.6843   15.6607 H   0  0  0  0  0  0  0  0  0  0  0  0
   12.7187   -2.1045   16.3359 H   0  0  0  0  0  0  0  0  0  0  0  0
   10.5887   -2.4537   14.8373 H   0  0  0  0  0  0  0  0  0  0  0  0
   11.9875   -3.4514   14.4196 H   0  0  0  0  0  0  0  0  0  0  0  0
   10.8950   -1.1922   13.0828 H   0  0  0  0  0  0  0  0  0  0  0  0
   12.5524    0.1874   13.2821 H   0  0  0  0  0  0  0  0  0  0  0  0
   13.5116   -0.9411   12.3285 H   0  0  0  0  0  0  0  0  0  0  0  0
   15.2185    0.2960   14.3122 H   0  0  0  0  0  0  0  0  0  0  0  0
   13.8042    0.7911   15.1570 H   0  0  0  0  0  0  0  0  0  0  0  0
  1  2  1  0
  2  3  1  0
  3  4  2  0
  3  5  2  0
  3  6  1  0
  6  7  1  0
  7  8  1  0
  8  9  1  0
  9 10  1  0
 10 11  2  0
 10 12  1  0
 12 13  1  0
 13 14  1  0
  9 15  1  0
 15 16  1  0
 16 17  1  0
 17 18  1  0
 18 19  1  0
 15 20  1  0
 20  6  1  0
 19 15  1  0
  1 21  1  0
  1 22  1  0
  1 23  1  0
  2 24  1  0
  2 25  1  0
  7 26  1  0
  7 27  1  0
  8 28  1  0
  8 29  1  0
  9 30  1  0
 14 31  1  0
 14 32  1  0
 14 33  1  0
 16 34  1  0
 16 35  1  0
 17 36  1  0
 17 37  1  0
 18 38  1  0
 19 39  1  0
 19 40  1  0
 20 41  1  0
 20 42  1  0
M  END
>  <Energy>  (186) 
-6.3340977584810449

>  <compound_id>  (186) 
1535

>  <target_id>  (186) 
1

>  <reference_id>  (186) 
146

>  <inspiration_ids>  (186) 
[8, 146]

>  <energy_score>  (186) 
-47.634549100639816

>  <distance_score>  (186) 
2.344896387613533

>  <path>  (186) 
/opt/xchem-fragalysis-2/maxwin/BulkDock/SCRATCH/505732/C1535-P146/C1535-P146.minimised.mol

>  <scratch_subdir>  (186) 
/opt/xchem-fragalysis-2/maxwin/BulkDock/SCRATCH/505732/C1535-P146

>  <fragmenstein_runtime>  (186) 
2.7711181640625

>  <fragmenstein_outcome>  (186) 
too moved

>  <fragmenstein_mode>  (186) 
expansion

>  <fragmenstein_error>  (186) 


$$$$
C1537-P9
     RDKit          3D

 37 38  0  0  0  0  0  0  0  0999 V2000
   -9.6826  -31.2445   11.4679 C   0  0  0  0  0  0  0  0  0  0  0  0
   -9.3352  -31.5255   12.9158 C   0  0  0  0  0  0  0  0  0  0  0  0
  -10.1788  -30.4417   14.0680 S   0  0  0  0  0  0  0  0  0  0  0  0
  -11.5960  -30.5113   13.7738 O   0  0  0  0  0  0  0  0  0  0  0  0
   -9.7190  -30.7478   15.4095 O   0  0  0  0  0  0  0  0  0  0  0  0
   -9.6872  -28.9149   13.6140 N   0  0  0  0  0  0  0  0  0  0  0  0
   -8.3242  -28.5120   13.4886 C   0  0  0  0  0  0  0  0  0  0  0  0
   -7.3254  -28.9322   14.3662 C   0  0  0  0  0  0  0  0  0  0  0  0
   -6.0010  -28.5402   14.1577 C   0  0  0  0  0  0  0  0  0  0  0  0
   -5.6742  -27.7274   13.0708 C   0  0  0  0  0  0  0  0  0  0  0  0
   -6.6828  -27.2422   12.2282 C   0  0  0  0  0  0  0  0  0  0  0  0
   -8.0148  -27.5782   12.4832 C   0  0  0  0  0  0  0  0  0  0  0  0
   -9.0326  -27.0791   11.6942 O   0  0  0  0  0  0  0  0  0  0  0  0
   -9.5306  -25.7822   12.1125 C   0  0  0  0  0  0  0  0  0  0  0  0
  -10.7033  -25.9014   13.0624 C   0  0  0  0  0  0  0  0  0  0  0  0
  -12.0198  -25.9730   12.5874 C   0  0  0  0  0  0  0  0  0  0  0  0
  -13.0803  -26.2052   13.4693 C   0  0  0  0  0  0  0  0  0  0  0  0
  -12.8361  -26.3934   14.8279 C   0  0  0  0  0  0  0  0  0  0  0  0
  -11.5344  -26.3294   15.3102 C   0  0  0  0  0  0  0  0  0  0  0  0
  -10.4810  -26.0549   14.4387 C   0  0  0  0  0  0  0  0  0  0  0  0
   -9.1711  -31.9564   10.8127 H   0  0  0  0  0  0  0  0  0  0  0  0
   -9.3824  -30.2367   11.1682 H   0  0  0  0  0  0  0  0  0  0  0  0
  -10.7591  -31.3378   11.2936 H   0  0  0  0  0  0  0  0  0  0  0  0
   -8.2596  -31.4422   13.0916 H   0  0  0  0  0  0  0  0  0  0  0  0
   -9.6382  -32.5442   13.1805 H   0  0  0  0  0  0  0  0  0  0  0  0
  -10.3283  -28.4792   12.9464 H   0  0  0  0  0  0  0  0  0  0  0  0
   -7.5511  -29.5607   15.2237 H   0  0  0  0  0  0  0  0  0  0  0  0
   -5.2237  -28.8799   14.8384 H   0  0  0  0  0  0  0  0  0  0  0  0
   -4.6389  -27.4415   12.8973 H   0  0  0  0  0  0  0  0  0  0  0  0
   -6.4319  -26.5819   11.4028 H   0  0  0  0  0  0  0  0  0  0  0  0
   -9.8567  -25.2657   11.2023 H   0  0  0  0  0  0  0  0  0  0  0  0
   -8.7351  -25.1622   12.5361 H   0  0  0  0  0  0  0  0  0  0  0  0
  -12.2283  -25.8738   11.5242 H   0  0  0  0  0  0  0  0  0  0  0  0
  -14.0973  -26.2670   13.0898 H   0  0  0  0  0  0  0  0  0  0  0  0
  -13.6592  -26.6030   15.5060 H   0  0  0  0  0  0  0  0  0  0  0  0
  -11.3370  -26.5040   16.3646 H   0  0  0  0  0  0  0  0  0  0  0  0
   -9.4725  -26.0407   14.8418 H   0  0  0  0  0  0  0  0  0  0  0  0
  1  2  1  0
  2  3  1  0
  3  4  2  0
  3  5  2  0
  3  6  1  0
  6  7  1  0
  7  8  2  0
  8  9  1  0
  9 10  2  0
 10 11  1  0
 11 12  2  0
 12 13  1  0
 13 14  1  0
 14 15  1  0
 15 16  2  0
 16 17  1  0
 17 18  2  0
 18 19  1  0
 19 20  2  0
 12  7  1  0
 20 15  1  0
  1 21  1  0
  1 22  1  0
  1 23  1  0
  2 24  1  0
  2 25  1  0
  6 26  1  0
  8 27  1  0
  9 28  1  0
 10 29  1  0
 11 30  1  0
 14 31  1  0
 14 32  1  0
 16 33  1  0
 17 34  1  0
 18 35  1  0
 19 36  1  0
 20 37  1  0
M  END
>  <Energy>  (187) 
4.7662073231114794

>  <compound_id>  (187) 
1537

>  <target_id>  (187) 
1

>  <reference_id>  (187) 
9

>  <inspiration_ids>  (187) 
[9, 1]

>  <energy_score>  (187) 
-26.20563414672499

>  <distance_score>  (187) 
1.4269036175909913

>  <path>  (187) 
/opt/xchem-fragalysis-2/maxwin/BulkDock/SCRATCH/505732/C1537-P9/C1537-P9.minimised.mol

>  <scratch_subdir>  (187) 
/opt/xchem-fragalysis-2/maxwin/BulkDock/SCRATCH/505732/C1537-P9

>  <fragmenstein_runtime>  (187) 
4.410368919372559

>  <fragmenstein_outcome>  (187) 
too moved

>  <fragmenstein_mode>  (187) 
expansion

>  <fragmenstein_error>  (187) 


$$$$
C1537-P1
     RDKit          3D

 37 38  0  0  0  0  0  0  0  0999 V2000
   -9.5003  -30.9838   10.9197 C   0  0  0  0  0  0  0  0  0  0  0  0
   -9.1677  -31.3505   12.3516 C   0  0  0  0  0  0  0  0  0  0  0  0
  -10.0349  -30.3398   13.5531 S   0  0  0  0  0  0  0  0  0  0  0  0
  -11.4518  -30.4194   13.2680 O   0  0  0  0  0  0  0  0  0  0  0  0
   -9.5503  -30.6540   14.8831 O   0  0  0  0  0  0  0  0  0  0  0  0
   -9.5731  -28.7862   13.2051 N   0  0  0  0  0  0  0  0  0  0  0  0
   -8.2171  -28.3497   13.1412 C   0  0  0  0  0  0  0  0  0  0  0  0
   -7.1974  -28.8665   13.9431 C   0  0  0  0  0  0  0  0  0  0  0  0
   -5.8798  -28.4448   13.7580 C   0  0  0  0  0  0  0  0  0  0  0  0
   -5.5811  -27.5101   12.7662 C   0  0  0  0  0  0  0  0  0  0  0  0
   -6.6117  -26.9270   12.0155 C   0  0  0  0  0  0  0  0  0  0  0  0
   -7.9365  -27.2936   12.2609 C   0  0  0  0  0  0  0  0  0  0  0  0
   -8.9770  -26.7071   11.5671 O   0  0  0  0  0  0  0  0  0  0  0  0
   -9.5078  -25.5139   12.1982 C   0  0  0  0  0  0  0  0  0  0  0  0
  -10.6486  -25.7964   13.1495 C   0  0  0  0  0  0  0  0  0  0  0  0
  -11.9692  -25.9006   12.6905 C   0  0  0  0  0  0  0  0  0  0  0  0
  -13.0001  -26.2408   13.5713 C   0  0  0  0  0  0  0  0  0  0  0  0
  -12.7205  -26.5002   14.9113 C   0  0  0  0  0  0  0  0  0  0  0  0
  -11.4133  -26.4064   15.3762 C   0  0  0  0  0  0  0  0  0  0  0  0
  -10.3884  -26.0356   14.5065 C   0  0  0  0  0  0  0  0  0  0  0  0
   -8.9782  -31.6522   10.2281 H   0  0  0  0  0  0  0  0  0  0  0  0
   -9.2010  -29.9581   10.6863 H   0  0  0  0  0  0  0  0  0  0  0  0
  -10.5745  -31.0701   10.7283 H   0  0  0  0  0  0  0  0  0  0  0  0
   -8.0950  -31.2694   12.5445 H   0  0  0  0  0  0  0  0  0  0  0  0
   -9.4664  -32.3846   12.5529 H   0  0  0  0  0  0  0  0  0  0  0  0
  -10.2157  -28.3056   12.5702 H   0  0  0  0  0  0  0  0  0  0  0  0
   -7.3841  -29.6111   14.7105 H   0  0  0  0  0  0  0  0  0  0  0  0
   -5.0848  -28.8621   14.3731 H   0  0  0  0  0  0  0  0  0  0  0  0
   -4.5497  -27.2046   12.6013 H   0  0  0  0  0  0  0  0  0  0  0  0
   -6.3786  -26.1738   11.2684 H   0  0  0  0  0  0  0  0  0  0  0  0
   -9.8811  -24.8729   11.3938 H   0  0  0  0  0  0  0  0  0  0  0  0
   -8.7158  -24.9398   12.6879 H   0  0  0  0  0  0  0  0  0  0  0  0
  -12.2026  -25.7305   11.6416 H   0  0  0  0  0  0  0  0  0  0  0  0
  -14.0204  -26.3246   13.2055 H   0  0  0  0  0  0  0  0  0  0  0  0
  -13.5198  -26.7889   15.5887 H   0  0  0  0  0  0  0  0  0  0  0  0
  -11.1891  -26.6334   16.4154 H   0  0  0  0  0  0  0  0  0  0  0  0
   -9.3734  -25.9884   14.8923 H   0  0  0  0  0  0  0  0  0  0  0  0
  1  2  1  0
  2  3  1  0
  3  4  2  0
  3  5  2  0
  3  6  1  0
  6  7  1  0
  7  8  2  0
  8  9  1  0
  9 10  2  0
 10 11  1  0
 11 12  2  0
 12 13  1  0
 13 14  1  0
 14 15  1  0
 15 16  2  0
 16 17  1  0
 17 18  2  0
 18 19  1  0
 19 20  2  0
 12  7  1  0
 20 15  1  0
  1 21  1  0
  1 22  1  0
  1 23  1  0
  2 24  1  0
  2 25  1  0
  6 26  1  0
  8 27  1  0
  9 28  1  0
 10 29  1  0
 11 30  1  0
 14 31  1  0
 14 32  1  0
 16 33  1  0
 17 34  1  0
 18 35  1  0
 19 36  1  0
 20 37  1  0
M  END
>  <Energy>  (188) 
5.1106825909428695

>  <compound_id>  (188) 
1537

>  <target_id>  (188) 
1

>  <reference_id>  (188) 
1

>  <inspiration_ids>  (188) 
[9, 1]

>  <energy_score>  (188) 
-25.861158878893807

>  <distance_score>  (188) 
1.4037440184232426

>  <path>  (188) 
/opt/xchem-fragalysis-2/maxwin/BulkDock/SCRATCH/505732/C1537-P1/C1537-P1.minimised.mol

>  <scratch_subdir>  (188) 
/opt/xchem-fragalysis-2/maxwin/BulkDock/SCRATCH/505732/C1537-P1

>  <fragmenstein_runtime>  (188) 
4.098536014556885

>  <fragmenstein_outcome>  (188) 
too moved

>  <fragmenstein_mode>  (188) 
expansion

>  <fragmenstein_error>  (188) 


$$$$
C1538-P9
     RDKit          3D

 38 39  0  0  0  0  0  0  0  0999 V2000
   -9.6823  -22.9072   13.0271 C   0  0  0  0  0  0  0  0  0  0  0  0
  -10.4128  -23.4727   11.8395 C   0  0  0  0  0  0  0  0  0  0  0  0
   -9.7357  -24.9703   11.1763 S   0  0  0  0  0  0  0  0  0  0  0  0
  -10.4170  -25.2691    9.9384 O   0  0  0  0  0  0  0  0  0  0  0  0
   -8.3073  -24.7791   11.1861 O   0  0  0  0  0  0  0  0  0  0  0  0
  -10.1603  -26.0271   12.3995 N   0  0  0  0  0  0  0  0  0  0  0  0
  -11.2720  -27.0197   12.3329 C   0  0  0  0  0  0  0  0  0  0  0  0
  -12.5551  -26.5303   11.6797 C   0  0  0  0  0  0  0  0  0  0  0  0
  -13.3819  -25.5413   12.4891 C   0  0  0  0  0  0  0  0  0  0  0  0
  -12.9702  -25.4395   13.9432 C   0  0  0  0  0  0  0  0  0  0  0  0
  -12.6228  -26.7828   14.5762 C   0  0  0  0  0  0  0  0  0  0  0  0
  -12.0587  -26.4966   15.9384 N   0  0  0  0  0  0  0  0  0  0  0  0
  -12.7618  -27.1586   16.8054 C   0  0  0  0  0  0  0  0  0  0  0  0
  -12.5596  -27.0444   18.2525 C   0  0  0  0  0  0  0  0  0  0  0  0
  -13.8532  -28.0292   16.3233 C   0  0  0  0  0  0  0  0  0  0  0  0
  -13.8927  -27.5789   14.9254 C   0  0  0  0  0  0  0  0  0  0  0  0
  -14.8480  -27.8083   14.2066 O   0  0  0  0  0  0  0  0  0  0  0  0
  -11.6386  -27.6215   13.7190 C   0  0  0  0  0  0  0  0  0  0  0  0
  -10.4894  -27.8907   14.4035 F   0  0  0  0  0  0  0  0  0  0  0  0
   -8.6438  -22.6497   12.8185 H   0  0  0  0  0  0  0  0  0  0  0  0
  -10.1755  -21.9926   13.3618 H   0  0  0  0  0  0  0  0  0  0  0  0
   -9.7059  -23.6107   13.8643 H   0  0  0  0  0  0  0  0  0  0  0  0
  -11.4557  -23.6538   12.0818 H   0  0  0  0  0  0  0  0  0  0  0  0
  -10.3950  -22.7181   11.0705 H   0  0  0  0  0  0  0  0  0  0  0  0
   -9.3507  -26.3409   12.9477 H   0  0  0  0  0  0  0  0  0  0  0  0
  -10.8647  -27.8444   11.7319 H   0  0  0  0  0  0  0  0  0  0  0  0
  -13.1876  -27.4162   11.5186 H   0  0  0  0  0  0  0  0  0  0  0  0
  -12.4081  -26.1371   10.6730 H   0  0  0  0  0  0  0  0  0  0  0  0
  -14.4363  -25.8398   12.4288 H   0  0  0  0  0  0  0  0  0  0  0  0
  -13.3529  -24.5498   12.0259 H   0  0  0  0  0  0  0  0  0  0  0  0
  -13.7663  -24.9356   14.5064 H   0  0  0  0  0  0  0  0  0  0  0  0
  -12.0956  -24.7837   14.0081 H   0  0  0  0  0  0  0  0  0  0  0  0
  -13.3758  -26.4557   18.6802 H   0  0  0  0  0  0  0  0  0  0  0  0
  -11.6186  -26.5454   18.4219 H   0  0  0  0  0  0  0  0  0  0  0  0
  -12.5584  -28.0399   18.7023 H   0  0  0  0  0  0  0  0  0  0  0  0
  -13.5750  -29.0811   16.3989 H   0  0  0  0  0  0  0  0  0  0  0  0
  -14.7874  -27.8041   16.8405 H   0  0  0  0  0  0  0  0  0  0  0  0
  -12.0979  -28.6001   13.5283 H   0  0  0  0  0  0  0  0  0  0  0  0
  1  2  1  0
  2  3  1  0
  3  4  2  0
  3  5  2  0
  3  6  1  0
  6  7  1  0
  7  8  1  0
  8  9  1  0
  9 10  1  0
 10 11  1  0
 11 12  1  0
 12 13  2  0
 13 14  1  0
 13 15  1  0
 15 16  1  0
 16 17  2  0
 11 18  1  0
 18 19  1  0
 18  7  1  0
 16 11  1  0
  1 20  1  0
  1 21  1  0
  1 22  1  0
  2 23  1  0
  2 24  1  0
  6 25  1  0
  7 26  1  0
  8 27  1  0
  8 28  1  0
  9 29  1  0
  9 30  1  0
 10 31  1  0
 10 32  1  0
 14 33  1  0
 14 34  1  0
 14 35  1  0
 15 36  1  0
 15 37  1  0
 18 38  1  0
M  END
>  <Energy>  (189) 
6.5208961733504687

>  <compound_id>  (189) 
1538

>  <target_id>  (189) 
1

>  <reference_id>  (189) 
9

>  <inspiration_ids>  (189) 
[9, 2]

>  <energy_score>  (189) 
-19.062260715592544

>  <distance_score>  (189) 
2.8641751432551867

>  <path>  (189) 
/opt/xchem-fragalysis-2/maxwin/BulkDock/SCRATCH/505732/C1538-P9/C1538-P9.minimised.mol

>  <scratch_subdir>  (189) 
/opt/xchem-fragalysis-2/maxwin/BulkDock/SCRATCH/505732/C1538-P9

>  <fragmenstein_runtime>  (189) 
23.61952304840088

>  <fragmenstein_outcome>  (189) 
too moved

>  <fragmenstein_mode>  (189) 
expansion

>  <fragmenstein_error>  (189) 


$$$$
C1538-P2
     RDKit          3D

 38 39  0  0  0  0  0  0  0  0999 V2000
   -8.3829  -22.0333   10.6899 C   0  0  0  0  0  0  0  0  0  0  0  0
   -8.4481  -23.5439   10.7405 C   0  0  0  0  0  0  0  0  0  0  0  0
   -9.8243  -24.1687    9.7913 S   0  0  0  0  0  0  0  0  0  0  0  0
   -9.3022  -24.6711    8.5337 O   0  0  0  0  0  0  0  0  0  0  0  0
  -10.8778  -23.1773    9.7665 O   0  0  0  0  0  0  0  0  0  0  0  0
  -10.3461  -25.5512   10.6839 N   0  0  0  0  0  0  0  0  0  0  0  0
  -10.6489  -25.6694   12.2036 C   0  0  0  0  0  0  0  0  0  0  0  0
  -11.1651  -24.3742   12.8077 C   0  0  0  0  0  0  0  0  0  0  0  0
  -12.6679  -24.2843   12.6377 C   0  0  0  0  0  0  0  0  0  0  0  0
  -13.4749  -25.3431   13.3625 C   0  0  0  0  0  0  0  0  0  0  0  0
  -12.6671  -26.5938   13.6737 C   0  0  0  0  0  0  0  0  0  0  0  0
  -11.9501  -26.3683   14.9774 N   0  0  0  0  0  0  0  0  0  0  0  0
  -12.3456  -27.2923   15.8015 C   0  0  0  0  0  0  0  0  0  0  0  0
  -12.0704  -27.2415   17.2387 C   0  0  0  0  0  0  0  0  0  0  0  0
  -13.1893  -28.3918   15.2853 C   0  0  0  0  0  0  0  0  0  0  0  0
  -13.6652  -27.7044   14.0768 C   0  0  0  0  0  0  0  0  0  0  0  0
  -14.7823  -27.9131   13.6326 O   0  0  0  0  0  0  0  0  0  0  0  0
  -11.6654  -26.8656   12.5102 C   0  0  0  0  0  0  0  0  0  0  0  0
  -10.9380  -27.9884   12.7943 F   0  0  0  0  0  0  0  0  0  0  0  0
   -7.5548  -21.6665   11.2973 H   0  0  0  0  0  0  0  0  0  0  0  0
   -8.2709  -21.6714    9.6642 H   0  0  0  0  0  0  0  0  0  0  0  0
   -9.2890  -21.5874   11.1048 H   0  0  0  0  0  0  0  0  0  0  0  0
   -8.5711  -23.8581   11.7761 H   0  0  0  0  0  0  0  0  0  0  0  0
   -7.5411  -24.0126   10.3546 H   0  0  0  0  0  0  0  0  0  0  0  0
   -9.8812  -26.3866   10.3164 H   0  0  0  0  0  0  0  0  0  0  0  0
   -9.6842  -25.9227   12.6610 H   0  0  0  0  0  0  0  0  0  0  0  0
  -10.7002  -23.4879   12.3728 H   0  0  0  0  0  0  0  0  0  0  0  0
  -10.9095  -24.3332   13.8724 H   0  0  0  0  0  0  0  0  0  0  0  0
  -12.9077  -24.3442   11.5696 H   0  0  0  0  0  0  0  0  0  0  0  0
  -13.0128  -23.3227   12.9997 H   0  0  0  0  0  0  0  0  0  0  0  0
  -14.3452  -25.5813   12.7367 H   0  0  0  0  0  0  0  0  0  0  0  0
  -13.8950  -24.9212   14.2848 H   0  0  0  0  0  0  0  0  0  0  0  0
  -12.8011  -26.5789   17.7035 H   0  0  0  0  0  0  0  0  0  0  0  0
  -11.0650  -26.8688   17.3499 H   0  0  0  0  0  0  0  0  0  0  0  0
  -12.1764  -28.2413   17.6627 H   0  0  0  0  0  0  0  0  0  0  0  0
  -12.5922  -29.2713   15.0431 H   0  0  0  0  0  0  0  0  0  0  0  0
  -14.0101  -28.6169   15.9684 H   0  0  0  0  0  0  0  0  0  0  0  0
  -12.2338  -27.0969   11.6013 H   0  0  0  0  0  0  0  0  0  0  0  0
  1  2  1  0
  2  3  1  0
  3  4  2  0
  3  5  2  0
  3  6  1  0
  6  7  1  0
  7  8  1  0
  8  9  1  0
  9 10  1  0
 10 11  1  0
 11 12  1  0
 12 13  2  0
 13 14  1  0
 13 15  1  0
 15 16  1  0
 16 17  2  0
 11 18  1  0
 18 19  1  0
 18  7  1  0
 16 11  1  0
  1 20  1  0
  1 21  1  0
  1 22  1  0
  2 23  1  0
  2 24  1  0
  6 25  1  0
  7 26  1  0
  8 27  1  0
  8 28  1  0
  9 29  1  0
  9 30  1  0
 10 31  1  0
 10 32  1  0
 14 33  1  0
 14 34  1  0
 14 35  1  0
 15 36  1  0
 15 37  1  0
 18 38  1  0
M  END
>  <Energy>  (190) 
13.630318794292094

>  <compound_id>  (190) 
1538

>  <target_id>  (190) 
1

>  <reference_id>  (190) 
2

>  <inspiration_ids>  (190) 
[9, 2]

>  <energy_score>  (190) 
-11.952838094650904

>  <distance_score>  (190) 
2.17847265640477

>  <path>  (190) 
/opt/xchem-fragalysis-2/maxwin/BulkDock/SCRATCH/505732/C1538-P2/C1538-P2.minimised.mol

>  <scratch_subdir>  (190) 
/opt/xchem-fragalysis-2/maxwin/BulkDock/SCRATCH/505732/C1538-P2

>  <fragmenstein_runtime>  (190) 
23.281526803970337

>  <fragmenstein_outcome>  (190) 
too moved

>  <fragmenstein_mode>  (190) 
expansion

>  <fragmenstein_error>  (190) 


$$$$
C1541-P9
     RDKit          3D

 43 43  0  0  0  0  0  0  0  0999 V2000
  -16.4008  -25.2429   10.4216 C   0  0  0  0  0  0  0  0  0  0  0  0
  -15.8465  -24.1363   11.3066 C   0  0  0  0  0  0  0  0  0  0  0  0
  -14.5541  -24.5193   12.0387 C   0  0  0  0  0  0  0  0  0  0  0  0
  -14.7661  -25.6714   13.0293 C   0  0  0  0  0  0  0  0  0  0  0  0
  -13.4842  -25.9918   13.7851 C   0  0  0  0  0  0  0  0  0  0  0  0
  -12.4634  -26.7127   12.9052 C   0  0  0  0  0  0  0  0  0  0  0  0
  -11.0812  -26.7772   13.5652 C   0  0  0  0  0  0  0  0  0  0  0  0
  -10.4040  -25.3822   13.6305 C   0  0  0  0  0  0  0  0  0  0  0  0
  -10.2167  -24.8158   12.1943 N   0  0  0  0  0  0  0  0  0  0  0  0
  -10.3991  -23.5471   12.9437 C   0  0  0  0  0  0  0  0  0  0  0  0
   -8.9825  -25.4026   11.5279 C   0  0  0  0  0  0  0  0  0  0  0  0
   -9.4076  -26.5986   10.7041 C   0  0  0  0  0  0  0  0  0  0  0  0
   -7.8694  -25.0241   11.5215 O   0  0  0  0  0  0  0  0  0  0  0  0
  -11.1102  -27.5070   14.9252 C   0  0  0  0  0  0  0  0  0  0  0  0
   -9.8154  -27.4292   15.5259 O   0  0  0  0  0  0  0  0  0  0  0  0
  -12.5092  -27.0498   16.0202 S   0  0  0  0  0  0  0  0  0  0  0  0
  -12.2670  -25.7461   16.5793 O   0  0  0  0  0  0  0  0  0  0  0  0
  -12.8238  -28.1575   16.8886 O   0  0  0  0  0  0  0  0  0  0  0  0
  -13.7694  -26.8667   14.9338 N   0  0  0  0  0  0  0  0  0  0  0  0
  -16.7579  -26.0910   11.0125 H   0  0  0  0  0  0  0  0  0  0  0  0
  -17.2491  -24.8674    9.8400 H   0  0  0  0  0  0  0  0  0  0  0  0
  -15.6418  -25.6023    9.7196 H   0  0  0  0  0  0  0  0  0  0  0  0
  -16.6097  -23.8309   12.0317 H   0  0  0  0  0  0  0  0  0  0  0  0
  -15.6456  -23.2670   10.6715 H   0  0  0  0  0  0  0  0  0  0  0  0
  -13.7935  -24.7718   11.2933 H   0  0  0  0  0  0  0  0  0  0  0  0
  -14.1890  -23.6413   12.5840 H   0  0  0  0  0  0  0  0  0  0  0  0
  -15.1237  -26.5700   12.5137 H   0  0  0  0  0  0  0  0  0  0  0  0
  -15.5515  -25.3863   13.7413 H   0  0  0  0  0  0  0  0  0  0  0  0
  -13.0961  -25.0409   14.1603 H   0  0  0  0  0  0  0  0  0  0  0  0
  -12.8058  -27.7367   12.7011 H   0  0  0  0  0  0  0  0  0  0  0  0
  -12.3771  -26.2310   11.9283 H   0  0  0  0  0  0  0  0  0  0  0  0
  -10.4466  -27.4030   12.9291 H   0  0  0  0  0  0  0  0  0  0  0  0
   -9.3988  -25.5263   14.0405 H   0  0  0  0  0  0  0  0  0  0  0  0
  -10.9940  -24.8353   14.3801 H   0  0  0  0  0  0  0  0  0  0  0  0
   -9.6629  -23.3207   13.7298 H   0  0  0  0  0  0  0  0  0  0  0  0
  -11.4523  -23.3626   13.1889 H   0  0  0  0  0  0  0  0  0  0  0  0
  -10.1728  -22.7799   12.1931 H   0  0  0  0  0  0  0  0  0  0  0  0
   -9.0097  -27.5109   11.1552 H   0  0  0  0  0  0  0  0  0  0  0  0
  -10.4924  -26.6737   10.6087 H   0  0  0  0  0  0  0  0  0  0  0  0
   -8.9970  -26.4889    9.6955 H   0  0  0  0  0  0  0  0  0  0  0  0
  -11.2886  -28.5715   14.7249 H   0  0  0  0  0  0  0  0  0  0  0  0
   -9.8276  -26.7505   16.2279 H   0  0  0  0  0  0  0  0  0  0  0  0
  -14.2859  -27.7293   14.7513 H   0  0  0  0  0  0  0  0  0  0  0  0
  1  2  1  0
  2  3  1  0
  3  4  1  0
  4  5  1  0
  5  6  1  0
  6  7  1  0
  7  8  1  0
  8  9  1  0
  9 10  1  0
  9 11  1  0
 11 12  1  0
 11 13  2  0
  7 14  1  0
 14 15  1  0
 14 16  1  0
 16 17  2  0
 16 18  2  0
 16 19  1  0
 19  5  1  0
  1 20  1  0
  1 21  1  0
  1 22  1  0
  2 23  1  0
  2 24  1  0
  3 25  1  0
  3 26  1  0
  4 27  1  0
  4 28  1  0
  5 29  1  0
  6 30  1  0
  6 31  1  0
  7 32  1  0
  8 33  1  0
  8 34  1  0
 10 35  1  0
 10 36  1  0
 10 37  1  0
 12 38  1  0
 12 39  1  0
 12 40  1  0
 14 41  1  0
 15 42  1  0
 19 43  1  0
M  END
>  <Energy>  (191) 
73.808377433115439

>  <compound_id>  (191) 
1541

>  <target_id>  (191) 
1

>  <reference_id>  (191) 
9

>  <inspiration_ids>  (191) 
[9, 30]

>  <energy_score>  (191) 
21.065118394486092

>  <distance_score>  (191) 
1.5773240726286128

>  <path>  (191) 
/opt/xchem-fragalysis-2/maxwin/BulkDock/SCRATCH/505732/C1541-P9/C1541-P9.minimised.mol

>  <scratch_subdir>  (191) 
/opt/xchem-fragalysis-2/maxwin/BulkDock/SCRATCH/505732/C1541-P9

>  <fragmenstein_runtime>  (191) 
3.6203246116638184

>  <fragmenstein_outcome>  (191) 
too moved

>  <fragmenstein_mode>  (191) 
expansion

>  <fragmenstein_error>  (191) 


$$$$
C1541-P30
     RDKit          3D

 43 43  0  0  0  0  0  0  0  0999 V2000
  -15.7304  -25.4066   10.0106 C   0  0  0  0  0  0  0  0  0  0  0  0
  -15.2084  -24.2759   10.8841 C   0  0  0  0  0  0  0  0  0  0  0  0
  -14.0207  -24.6753   11.7657 C   0  0  0  0  0  0  0  0  0  0  0  0
  -14.3758  -25.7595   12.7875 C   0  0  0  0  0  0  0  0  0  0  0  0
  -13.1925  -26.0638   13.6980 C   0  0  0  0  0  0  0  0  0  0  0  0
  -11.9954  -26.6673   12.9402 C   0  0  0  0  0  0  0  0  0  0  0  0
  -11.0055  -27.4176   13.8673 C   0  0  0  0  0  0  0  0  0  0  0  0
   -9.6053  -27.5545   13.2031 C   0  0  0  0  0  0  0  0  0  0  0  0
   -9.6237  -28.5369   11.9988 N   0  0  0  0  0  0  0  0  0  0  0  0
   -8.3824  -27.7703   11.6820 C   0  0  0  0  0  0  0  0  0  0  0  0
   -9.8084  -29.9752   12.4631 C   0  0  0  0  0  0  0  0  0  0  0  0
  -11.2825  -30.3173   12.4066 C   0  0  0  0  0  0  0  0  0  0  0  0
   -9.0100  -30.7894   12.7558 O   0  0  0  0  0  0  0  0  0  0  0  0
  -10.9004  -26.7093   15.2310 C   0  0  0  0  0  0  0  0  0  0  0  0
  -10.5334  -25.3568   14.9592 O   0  0  0  0  0  0  0  0  0  0  0  0
  -12.5510  -26.9369   16.1073 S   0  0  0  0  0  0  0  0  0  0  0  0
  -12.9531  -25.7625   16.8428 O   0  0  0  0  0  0  0  0  0  0  0  0
  -12.5688  -28.2358   16.7368 O   0  0  0  0  0  0  0  0  0  0  0  0
  -13.5882  -27.0016   14.7690 N   0  0  0  0  0  0  0  0  0  0  0  0
  -16.1868  -26.1998   10.6096 H   0  0  0  0  0  0  0  0  0  0  0  0
  -16.4970  -25.0282    9.3266 H   0  0  0  0  0  0  0  0  0  0  0  0
  -14.9263  -25.8431    9.4100 H   0  0  0  0  0  0  0  0  0  0  0  0
  -16.0232  -23.8905   11.5079 H   0  0  0  0  0  0  0  0  0  0  0  0
  -14.8936  -23.4564   10.2278 H   0  0  0  0  0  0  0  0  0  0  0  0
  -13.2037  -25.0113   11.1174 H   0  0  0  0  0  0  0  0  0  0  0  0
  -13.6628  -23.7874   12.2979 H   0  0  0  0  0  0  0  0  0  0  0  0
  -14.6961  -26.6781   12.2822 H   0  0  0  0  0  0  0  0  0  0  0  0
  -15.2270  -25.4233   13.3932 H   0  0  0  0  0  0  0  0  0  0  0  0
  -12.9031  -25.1106   14.1555 H   0  0  0  0  0  0  0  0  0  0  0  0
  -12.3493  -27.3605   12.1689 H   0  0  0  0  0  0  0  0  0  0  0  0
  -11.4746  -25.8614   12.4079 H   0  0  0  0  0  0  0  0  0  0  0  0
  -11.4005  -28.4154   14.0683 H   0  0  0  0  0  0  0  0  0  0  0  0
   -8.9384  -27.9777   13.9736 H   0  0  0  0  0  0  0  0  0  0  0  0
   -9.3275  -26.5050   12.9971 H   0  0  0  0  0  0  0  0  0  0  0  0
   -7.5637  -27.8434   12.4154 H   0  0  0  0  0  0  0  0  0  0  0  0
   -8.5710  -26.7690   11.2673 H   0  0  0  0  0  0  0  0  0  0  0  0
   -7.9699  -28.3225   10.8242 H   0  0  0  0  0  0  0  0  0  0  0  0
  -11.6545  -30.5130   13.4151 H   0  0  0  0  0  0  0  0  0  0  0  0
  -11.8745  -29.5320   11.9349 H   0  0  0  0  0  0  0  0  0  0  0  0
  -11.4030  -31.2222   11.8025 H   0  0  0  0  0  0  0  0  0  0  0  0
  -10.1567  -27.1716   15.8897 H   0  0  0  0  0  0  0  0  0  0  0  0
   -9.5993  -25.2457   15.2089 H   0  0  0  0  0  0  0  0  0  0  0  0
  -13.8244  -27.9530   14.4861 H   0  0  0  0  0  0  0  0  0  0  0  0
  1  2  1  0
  2  3  1  0
  3  4  1  0
  4  5  1  0
  5  6  1  0
  6  7  1  0
  7  8  1  0
  8  9  1  0
  9 10  1  0
  9 11  1  0
 11 12  1  0
 11 13  2  0
  7 14  1  0
 14 15  1  0
 14 16  1  0
 16 17  2  0
 16 18  2  0
 16 19  1  0
 19  5  1  0
  1 20  1  0
  1 21  1  0
  1 22  1  0
  2 23  1  0
  2 24  1  0
  3 25  1  0
  3 26  1  0
  4 27  1  0
  4 28  1  0
  5 29  1  0
  6 30  1  0
  6 31  1  0
  7 32  1  0
  8 33  1  0
  8 34  1  0
 10 35  1  0
 10 36  1  0
 10 37  1  0
 12 38  1  0
 12 39  1  0
 12 40  1  0
 14 41  1  0
 15 42  1  0
 19 43  1  0
M  END
>  <Energy>  (192) 
82.48979254971367

>  <compound_id>  (192) 
1541

>  <target_id>  (192) 
1

>  <reference_id>  (192) 
30

>  <inspiration_ids>  (192) 
[9, 30]

>  <energy_score>  (192) 
29.746533511083953

>  <distance_score>  (192) 
2.6888267054792006

>  <path>  (192) 
/opt/xchem-fragalysis-2/maxwin/BulkDock/SCRATCH/505732/C1541-P30/C1541-P30.minimised.mol

>  <scratch_subdir>  (192) 
/opt/xchem-fragalysis-2/maxwin/BulkDock/SCRATCH/505732/C1541-P30

>  <fragmenstein_runtime>  (192) 
4.234385013580322

>  <fragmenstein_outcome>  (192) 
too moved

>  <fragmenstein_mode>  (192) 
expansion

>  <fragmenstein_error>  (192) 


$$$$
C10-P9
     RDKit          3D

 23 23  0  0  0  0  0  0  0  0999 V2000
  -14.4313  -28.3899   18.4605 C   0  0  0  0  0  0  0  0  0  0  0  0
  -14.2240  -28.2559   16.9760 C   0  0  0  0  0  0  0  0  0  0  0  0
  -13.0595  -26.9636   16.5986 S   0  0  0  0  0  0  0  0  0  0  0  0
  -11.8028  -27.2533   17.2548 O   0  0  0  0  0  0  0  0  0  0  0  0
  -13.7199  -25.6871   16.7417 O   0  0  0  0  0  0  0  0  0  0  0  0
  -12.8308  -27.3527   14.9646 N   0  0  0  0  0  0  0  0  0  0  0  0
  -12.3764  -26.2905   14.1342 C   0  0  0  0  0  0  0  0  0  0  0  0
  -11.0001  -26.1204   13.9869 C   0  0  0  0  0  0  0  0  0  0  0  0
  -10.5085  -25.0958   13.1905 C   0  0  0  0  0  0  0  0  0  0  0  0
  -11.3926  -24.2366   12.5550 C   0  0  0  0  0  0  0  0  0  0  0  0
  -12.7728  -24.3933   12.7129 C   0  0  0  0  0  0  0  0  0  0  0  0
  -13.2646  -25.4177   13.5090 C   0  0  0  0  0  0  0  0  0  0  0  0
  -14.5925  -25.5765   13.6253 F   0  0  0  0  0  0  0  0  0  0  0  0
  -13.4844  -28.6316   18.9514 H   0  0  0  0  0  0  0  0  0  0  0  0
  -15.1490  -29.1860   18.6792 H   0  0  0  0  0  0  0  0  0  0  0  0
  -14.8072  -27.4574   18.8934 H   0  0  0  0  0  0  0  0  0  0  0  0
  -15.1634  -28.0195   16.4679 H   0  0  0  0  0  0  0  0  0  0  0  0
  -13.8229  -29.1936   16.5786 H   0  0  0  0  0  0  0  0  0  0  0  0
  -12.1971  -28.1523   14.9162 H   0  0  0  0  0  0  0  0  0  0  0  0
  -10.2951  -26.7717   14.4985 H   0  0  0  0  0  0  0  0  0  0  0  0
   -9.4379  -24.9643   13.0678 H   0  0  0  0  0  0  0  0  0  0  0  0
  -10.9989  -23.4389   11.9315 H   0  0  0  0  0  0  0  0  0  0  0  0
  -13.4694  -23.7257   12.2195 H   0  0  0  0  0  0  0  0  0  0  0  0
  1  2  1  0
  2  3  1  0
  3  4  2  0
  3  5  2  0
  3  6  1  0
  6  7  1  0
  7  8  2  0
  8  9  1  0
  9 10  2  0
 10 11  1  0
 11 12  2  0
 12 13  1  0
 12  7  1  0
  1 14  1  0
  1 15  1  0
  1 16  1  0
  2 17  1  0
  2 18  1  0
  6 19  1  0
  8 20  1  0
  9 21  1  0
 10 22  1  0
 11 23  1  0
M  END
>  <Energy>  (193) 
-24.97816646739124

>  <compound_id>  (193) 
10

>  <target_id>  (193) 
1

>  <reference_id>  (193) 
9

>  <inspiration_ids>  (193) 
[9, 77]

>  <energy_score>  (193) 
-23.021020733180706

>  <distance_score>  (193) 
1.87975580536429

>  <path>  (193) 
/opt/xchem-fragalysis-2/maxwin/BulkDock/SCRATCH/505732/C10-P9/C10-P9.minimised.mol

>  <scratch_subdir>  (193) 
/opt/xchem-fragalysis-2/maxwin/BulkDock/SCRATCH/505732/C10-P9

>  <fragmenstein_runtime>  (193) 
1.6697213649749756

>  <fragmenstein_outcome>  (193) 
too moved

>  <fragmenstein_mode>  (193) 
expansion

>  <fragmenstein_error>  (193) 


$$$$
C10-P77
     RDKit          3D

 23 23  0  0  0  0  0  0  0  0999 V2000
  -14.2827  -28.6184   18.3982 C   0  0  0  0  0  0  0  0  0  0  0  0
  -14.1738  -28.3628   16.9194 C   0  0  0  0  0  0  0  0  0  0  0  0
  -13.0339  -27.0431   16.5572 S   0  0  0  0  0  0  0  0  0  0  0  0
  -11.7756  -27.3018   17.2221 O   0  0  0  0  0  0  0  0  0  0  0  0
  -13.7234  -25.7802   16.6790 O   0  0  0  0  0  0  0  0  0  0  0  0
  -12.7785  -27.4269   14.9248 N   0  0  0  0  0  0  0  0  0  0  0  0
  -12.3402  -26.3519   14.1026 C   0  0  0  0  0  0  0  0  0  0  0  0
  -10.9663  -26.1579   13.9619 C   0  0  0  0  0  0  0  0  0  0  0  0
  -10.4883  -25.1208   13.1740 C   0  0  0  0  0  0  0  0  0  0  0  0
  -11.3843  -24.2744   12.5385 C   0  0  0  0  0  0  0  0  0  0  0  0
  -12.7625  -24.4540   12.6924 C   0  0  0  0  0  0  0  0  0  0  0  0
  -13.2407  -25.4888   13.4822 C   0  0  0  0  0  0  0  0  0  0  0  0
  -14.5669  -25.6643   13.5969 F   0  0  0  0  0  0  0  0  0  0  0  0
  -13.3202  -28.9444   18.8050 H   0  0  0  0  0  0  0  0  0  0  0  0
  -15.0211  -29.4006   18.5977 H   0  0  0  0  0  0  0  0  0  0  0  0
  -14.5825  -27.7146   18.9317 H   0  0  0  0  0  0  0  0  0  0  0  0
  -15.1432  -28.0926   16.4907 H   0  0  0  0  0  0  0  0  0  0  0  0
  -13.8049  -29.2691   16.4287 H   0  0  0  0  0  0  0  0  0  0  0  0
  -12.1233  -28.2096   14.8869 H   0  0  0  0  0  0  0  0  0  0  0  0
  -10.2527  -26.7998   14.4736 H   0  0  0  0  0  0  0  0  0  0  0  0
   -9.4194  -24.9697   13.0586 H   0  0  0  0  0  0  0  0  0  0  0  0
  -11.0001  -23.4679   11.9200 H   0  0  0  0  0  0  0  0  0  0  0  0
  -13.4709  -23.7975   12.2015 H   0  0  0  0  0  0  0  0  0  0  0  0
  1  2  1  0
  2  3  1  0
  3  4  2  0
  3  5  2  0
  3  6  1  0
  6  7  1  0
  7  8  2  0
  8  9  1  0
  9 10  2  0
 10 11  1  0
 11 12  2  0
 12 13  1  0
 12  7  1  0
  1 14  1  0
  1 15  1  0
  1 16  1  0
  2 17  1  0
  2 18  1  0
  6 19  1  0
  8 20  1  0
  9 21  1  0
 10 22  1  0
 11 23  1  0
M  END
>  <Energy>  (194) 
-24.521842886162638

>  <compound_id>  (194) 
10

>  <target_id>  (194) 
1

>  <reference_id>  (194) 
77

>  <inspiration_ids>  (194) 
[9, 77]

>  <energy_score>  (194) 
-22.564697151952686

>  <distance_score>  (194) 
1.8839599973962313

>  <path>  (194) 
/opt/xchem-fragalysis-2/maxwin/BulkDock/SCRATCH/505732/C10-P77/C10-P77.minimised.mol

>  <scratch_subdir>  (194) 
/opt/xchem-fragalysis-2/maxwin/BulkDock/SCRATCH/505732/C10-P77

>  <fragmenstein_runtime>  (194) 
1.6488730907440186

>  <fragmenstein_outcome>  (194) 
too moved

>  <fragmenstein_mode>  (194) 
expansion

>  <fragmenstein_error>  (194) 


$$$$
C10-P9
     RDKit          3D

 23 23  0  0  0  0  0  0  0  0999 V2000
  -14.2256  -28.5000   18.4867 C   0  0  0  0  0  0  0  0  0  0  0  0
  -13.7921  -28.5230   17.0498 C   0  0  0  0  0  0  0  0  0  0  0  0
  -12.9280  -27.0312   16.6089 S   0  0  0  0  0  0  0  0  0  0  0  0
  -11.6769  -26.9843   17.3245 O   0  0  0  0  0  0  0  0  0  0  0  0
  -13.8743  -25.9365   16.6452 O   0  0  0  0  0  0  0  0  0  0  0  0
  -12.6266  -27.4415   14.9944 N   0  0  0  0  0  0  0  0  0  0  0  0
  -12.1648  -26.3819   14.1664 C   0  0  0  0  0  0  0  0  0  0  0  0
  -13.1252  -25.6200   13.4966 C   0  0  0  0  0  0  0  0  0  0  0  0
  -12.7175  -24.6347   12.6132 C   0  0  0  0  0  0  0  0  0  0  0  0
  -11.3575  -24.4082   12.4089 C   0  0  0  0  0  0  0  0  0  0  0  0
  -10.4025  -25.1365   13.1143 C   0  0  0  0  0  0  0  0  0  0  0  0
  -10.8069  -26.1184   14.0033 C   0  0  0  0  0  0  0  0  0  0  0  0
   -9.8797  -26.8530   14.6324 F   0  0  0  0  0  0  0  0  0  0  0  0
  -14.7496  -29.4254   18.7416 H   0  0  0  0  0  0  0  0  0  0  0  0
  -13.3484  -28.3983   19.1291 H   0  0  0  0  0  0  0  0  0  0  0  0
  -14.8934  -27.6576   18.6930 H   0  0  0  0  0  0  0  0  0  0  0  0
  -14.6651  -28.6125   16.3961 H   0  0  0  0  0  0  0  0  0  0  0  0
  -13.1160  -29.3647   16.8709 H   0  0  0  0  0  0  0  0  0  0  0  0
  -13.4416  -27.8893   14.5759 H   0  0  0  0  0  0  0  0  0  0  0  0
  -14.1868  -25.7920   13.6481 H   0  0  0  0  0  0  0  0  0  0  0  0
  -13.4525  -24.0447   12.0723 H   0  0  0  0  0  0  0  0  0  0  0  0
  -11.0274  -23.6537   11.6986 H   0  0  0  0  0  0  0  0  0  0  0  0
   -9.3453  -24.9588   12.9566 H   0  0  0  0  0  0  0  0  0  0  0  0
  1  2  1  0
  2  3  1  0
  3  4  2  0
  3  5  2  0
  3  6  1  0
  6  7  1  0
  7  8  2  0
  8  9  1  0
  9 10  2  0
 10 11  1  0
 11 12  2  0
 12 13  1  0
 12  7  1  0
  1 14  1  0
  1 15  1  0
  1 16  1  0
  2 17  1  0
  2 18  1  0
  6 19  1  0
  8 20  1  0
  9 21  1  0
 10 22  1  0
 11 23  1  0
M  END
>  <Energy>  (195) 
-20.334760703070398

>  <compound_id>  (195) 
10

>  <target_id>  (195) 
1

>  <reference_id>  (195) 
9

>  <inspiration_ids>  (195) 
[9, 87]

>  <energy_score>  (195) 
-18.36870860072088

>  <distance_score>  (195) 
1.4217205646570308

>  <path>  (195) 
/opt/xchem-fragalysis-2/maxwin/BulkDock/SCRATCH/505732/C10-P9/C10-P9.minimised.mol

>  <scratch_subdir>  (195) 
/opt/xchem-fragalysis-2/maxwin/BulkDock/SCRATCH/505732/C10-P9

>  <fragmenstein_runtime>  (195) 
1.2065436840057373

>  <fragmenstein_outcome>  (195) 
too moved

>  <fragmenstein_mode>  (195) 
expansion

>  <fragmenstein_error>  (195) 


$$$$
C10-P87
     RDKit          3D

 23 23  0  0  0  0  0  0  0  0999 V2000
  -14.0351  -29.1523   17.7792 C   0  0  0  0  0  0  0  0  0  0  0  0
  -13.7442  -28.3146   16.5504 C   0  0  0  0  0  0  0  0  0  0  0  0
  -13.0425  -26.7341   17.0018 S   0  0  0  0  0  0  0  0  0  0  0  0
  -11.6598  -26.9117   17.3540 O   0  0  0  0  0  0  0  0  0  0  0  0
  -13.9695  -26.0824   17.9071 O   0  0  0  0  0  0  0  0  0  0  0  0
  -13.1941  -25.8644   15.6014 N   0  0  0  0  0  0  0  0  0  0  0  0
  -12.5184  -26.1174   14.3800 C   0  0  0  0  0  0  0  0  0  0  0  0
  -13.3433  -26.0953   13.2477 C   0  0  0  0  0  0  0  0  0  0  0  0
  -12.7956  -26.1800   11.9751 C   0  0  0  0  0  0  0  0  0  0  0  0
  -11.4164  -26.2645   11.8190 C   0  0  0  0  0  0  0  0  0  0  0  0
  -10.5874  -26.2890   12.9377 C   0  0  0  0  0  0  0  0  0  0  0  0
  -11.1352  -26.2297   14.2142 C   0  0  0  0  0  0  0  0  0  0  0  0
  -10.2858  -26.2489   15.2448 F   0  0  0  0  0  0  0  0  0  0  0  0
  -14.4069  -30.1392   17.4876 H   0  0  0  0  0  0  0  0  0  0  0  0
  -13.1389  -29.2890   18.3911 H   0  0  0  0  0  0  0  0  0  0  0  0
  -14.7973  -28.6755   18.4033 H   0  0  0  0  0  0  0  0  0  0  0  0
  -14.6734  -28.1238   16.0051 H   0  0  0  0  0  0  0  0  0  0  0  0
  -13.0316  -28.8201   15.8927 H   0  0  0  0  0  0  0  0  0  0  0  0
  -14.0927  -25.3858   15.5450 H   0  0  0  0  0  0  0  0  0  0  0  0
  -14.4211  -25.9905   13.3416 H   0  0  0  0  0  0  0  0  0  0  0  0
  -13.4375  -26.1522   11.0976 H   0  0  0  0  0  0  0  0  0  0  0  0
  -10.9803  -26.3008   10.8224 H   0  0  0  0  0  0  0  0  0  0  0  0
   -9.5082  -26.3502   12.8268 H   0  0  0  0  0  0  0  0  0  0  0  0
  1  2  1  0
  2  3  1  0
  3  4  2  0
  3  5  2  0
  3  6  1  0
  6  7  1  0
  7  8  2  0
  8  9  1  0
  9 10  2  0
 10 11  1  0
 11 12  2  0
 12 13  1  0
 12  7  1  0
  1 14  1  0
  1 15  1  0
  1 16  1  0
  2 17  1  0
  2 18  1  0
  6 19  1  0
  8 20  1  0
  9 21  1  0
 10 22  1  0
 11 23  1  0
M  END
>  <Energy>  (196) 
-20.866518207587365

>  <compound_id>  (196) 
10

>  <target_id>  (196) 
1

>  <reference_id>  (196) 
87

>  <inspiration_ids>  (196) 
[9, 87]

>  <energy_score>  (196) 
-18.90046610523804

>  <distance_score>  (196) 
1.720391345125571

>  <path>  (196) 
/opt/xchem-fragalysis-2/maxwin/BulkDock/SCRATCH/505732/C10-P87/C10-P87.minimised.mol

>  <scratch_subdir>  (196) 
/opt/xchem-fragalysis-2/maxwin/BulkDock/SCRATCH/505732/C10-P87

>  <fragmenstein_runtime>  (196) 
1.3906357288360596

>  <fragmenstein_outcome>  (196) 
too moved

>  <fragmenstein_mode>  (196) 
expansion

>  <fragmenstein_error>  (196) 


$$$$
C1545-P10
     RDKit          3D

 49 50  0  0  0  0  0  0  0  0999 V2000
   17.7392   -2.4439   16.7718 C   0  0  0  0  0  0  0  0  0  0  0  0
   16.8408   -3.6174   16.4384 C   0  0  0  0  0  0  0  0  0  0  0  0
   15.6902   -4.0264   17.7531 S   0  0  0  0  0  0  0  0  0  0  0  0
   16.4335   -4.0607   18.9941 O   0  0  0  0  0  0  0  0  0  0  0  0
   14.9064   -5.1669   17.3335 O   0  0  0  0  0  0  0  0  0  0  0  0
   14.6832   -2.6801   17.8400 N   0  0  0  0  0  0  0  0  0  0  0  0
   13.8315   -2.4008   16.7256 C   0  0  0  0  0  0  0  0  0  0  0  0
   12.7103   -3.1772   16.4587 C   0  0  0  0  0  0  0  0  0  0  0  0
   11.9035   -2.8706   15.3595 C   0  0  0  0  0  0  0  0  0  0  0  0
   12.2538   -1.8314   14.4907 C   0  0  0  0  0  0  0  0  0  0  0  0
   13.4112   -1.0801   14.7145 C   0  0  0  0  0  0  0  0  0  0  0  0
   13.9216   -0.0693   13.7218 C   0  0  0  0  0  0  0  0  0  0  0  0
   13.1171    1.1854   13.5596 C   0  0  0  0  0  0  0  0  0  0  0  0
   13.3429    2.3421   14.1976 C   0  0  0  0  0  0  0  0  0  0  0  0
   14.1595    2.5587   15.2904 N   0  0  0  0  0  0  0  0  0  0  0  0
   14.8272    3.8507   15.4698 C   0  0  0  0  0  0  0  0  0  0  0  0
   15.7644    3.7726   16.7011 C   0  0  0  0  0  0  0  0  0  0  0  0
   15.0969    3.7362   18.0831 N   0  0  0  0  0  0  0  0  0  0  0  0
   16.0254    4.2703   19.1544 C   0  0  0  0  0  0  0  0  0  0  0  0
   15.7688    5.7586   19.2609 C   0  0  0  0  0  0  0  0  0  0  0  0
   16.8103    3.7121   19.8273 O   0  0  0  0  0  0  0  0  0  0  0  0
   14.8269    2.3132   17.6295 C   0  0  0  0  0  0  0  0  0  0  0  0
   13.6895    2.1083   16.6077 C   0  0  0  0  0  0  0  0  0  0  0  0
   14.1626   -1.3606   15.8581 C   0  0  0  0  0  0  0  0  0  0  0  0
   15.2380   -0.6101   16.1413 F   0  0  0  0  0  0  0  0  0  0  0  0
   18.3817   -2.2059   15.9185 H   0  0  0  0  0  0  0  0  0  0  0  0
   17.1740   -1.5480   17.0347 H   0  0  0  0  0  0  0  0  0  0  0  0
   18.3868   -2.6810   17.6222 H   0  0  0  0  0  0  0  0  0  0  0  0
   17.4477   -4.5145   16.2756 H   0  0  0  0  0  0  0  0  0  0  0  0
   16.2655   -3.4405   15.5257 H   0  0  0  0  0  0  0  0  0  0  0  0
   15.1690   -1.8770   18.2414 H   0  0  0  0  0  0  0  0  0  0  0  0
   12.4506   -4.0117   17.1070 H   0  0  0  0  0  0  0  0  0  0  0  0
   11.0183   -3.4694   15.1525 H   0  0  0  0  0  0  0  0  0  0  0  0
   11.6368   -1.6404   13.6167 H   0  0  0  0  0  0  0  0  0  0  0  0
   14.9614    0.1954   13.9557 H   0  0  0  0  0  0  0  0  0  0  0  0
   13.9890   -0.5621   12.7421 H   0  0  0  0  0  0  0  0  0  0  0  0
   12.3905    1.1783   12.7508 H   0  0  0  0  0  0  0  0  0  0  0  0
   12.8041    3.2360   13.8839 H   0  0  0  0  0  0  0  0  0  0  0  0
   15.4214    4.0864   14.5792 H   0  0  0  0  0  0  0  0  0  0  0  0
   14.0880    4.6496   15.6106 H   0  0  0  0  0  0  0  0  0  0  0  0
   16.2663    4.7536   16.7011 H   0  0  0  0  0  0  0  0  0  0  0  0
   16.6323    3.0999   16.5808 H   0  0  0  0  0  0  0  0  0  0  0  0
   15.5882    6.0127   20.3091 H   0  0  0  0  0  0  0  0  0  0  0  0
   16.6470    6.2982   18.8967 H   0  0  0  0  0  0  0  0  0  0  0  0
   14.8959    6.0684   18.6794 H   0  0  0  0  0  0  0  0  0  0  0  0
   14.4345    1.8758   18.5613 H   0  0  0  0  0  0  0  0  0  0  0  0
   15.7190    1.6811   17.4763 H   0  0  0  0  0  0  0  0  0  0  0  0
   12.8089    2.6905   16.9105 H   0  0  0  0  0  0  0  0  0  0  0  0
   13.3919    1.0601   16.5919 H   0  0  0  0  0  0  0  0  0  0  0  0
  1  2  1  0
  2  3  1  0
  3  4  2  0
  3  5  2  0
  3  6  1  0
  6  7  1  0
  7  8  2  0
  8  9  1  0
  9 10  2  0
 10 11  1  0
 11 12  1  0
 12 13  1  0
 13 14  2  3
 14 15  1  0
 15 16  1  0
 16 17  1  0
 17 18  1  0
 18 19  1  0
 19 20  1  0
 19 21  2  0
 18 22  1  0
 22 23  1  0
 11 24  2  0
 24 25  1  0
 24  7  1  0
 23 15  1  0
  1 26  1  0
  1 27  1  0
  1 28  1  0
  2 29  1  0
  2 30  1  0
  6 31  1  0
  8 32  1  0
  9 33  1  0
 10 34  1  0
 12 35  1  0
 12 36  1  0
 13 37  1  0
 14 38  1  0
 16 39  1  0
 16 40  1  0
 17 41  1  0
 17 42  1  0
 20 43  1  0
 20 44  1  0
 20 45  1  0
 22 46  1  0
 22 47  1  0
 23 48  1  0
 23 49  1  0
M  END
>  <Energy>  (197) 
115.89069126252542

>  <compound_id>  (197) 
1545

>  <target_id>  (197) 
1

>  <reference_id>  (197) 
10

>  <inspiration_ids>  (197) 
[10, 6]

>  <energy_score>  (197) 
20.99079663781842

>  <distance_score>  (197) 
1.1330533023243503

>  <path>  (197) 
/opt/xchem-fragalysis-2/maxwin/BulkDock/SCRATCH/505732/C1545-P10/C1545-P10.minimised.mol

>  <scratch_subdir>  (197) 
/opt/xchem-fragalysis-2/maxwin/BulkDock/SCRATCH/505732/C1545-P10

>  <fragmenstein_runtime>  (197) 
6.823129415512085

>  <fragmenstein_outcome>  (197) 
too moved

>  <fragmenstein_mode>  (197) 
expansion

>  <fragmenstein_error>  (197) 


$$$$
C1545-P6
     RDKit          3D

 49 50  0  0  0  0  0  0  0  0999 V2000
   17.7961   -1.4008   17.3711 C   0  0  0  0  0  0  0  0  0  0  0  0
   17.3835   -2.6363   16.6140 C   0  0  0  0  0  0  0  0  0  0  0  0
   16.1627   -3.6133   17.4610 S   0  0  0  0  0  0  0  0  0  0  0  0
   16.6797   -3.9803   18.7621 O   0  0  0  0  0  0  0  0  0  0  0  0
   15.7264   -4.6437   16.5456 O   0  0  0  0  0  0  0  0  0  0  0  0
   14.8815   -2.5716   17.7722 N   0  0  0  0  0  0  0  0  0  0  0  0
   13.9100   -2.4018   16.7365 C   0  0  0  0  0  0  0  0  0  0  0  0
   12.7991   -3.2361   16.6661 C   0  0  0  0  0  0  0  0  0  0  0  0
   11.8940   -3.0838   15.6157 C   0  0  0  0  0  0  0  0  0  0  0  0
   12.1107   -2.1196   14.6271 C   0  0  0  0  0  0  0  0  0  0  0  0
   13.2349   -1.2851   14.6682 C   0  0  0  0  0  0  0  0  0  0  0  0
   13.4963   -0.3170   13.5305 C   0  0  0  0  0  0  0  0  0  0  0  0
   14.1687    0.9567   13.9597 C   0  0  0  0  0  0  0  0  0  0  0  0
   13.5076    1.9084   14.6251 C   0  0  0  0  0  0  0  0  0  0  0  0
   13.9716    3.0047   15.3234 N   0  0  0  0  0  0  0  0  0  0  0  0
   15.3903    3.2376   15.6016 C   0  0  0  0  0  0  0  0  0  0  0  0
   15.7070    2.7435   17.0354 C   0  0  0  0  0  0  0  0  0  0  0  0
   15.1930    3.6127   18.1936 N   0  0  0  0  0  0  0  0  0  0  0  0
   16.0363    3.4222   19.4376 C   0  0  0  0  0  0  0  0  0  0  0  0
   17.1439    4.4529   19.3833 C   0  0  0  0  0  0  0  0  0  0  0  0
   15.9203    2.6615   20.3256 O   0  0  0  0  0  0  0  0  0  0  0  0
   13.8908    2.9517   17.7698 C   0  0  0  0  0  0  0  0  0  0  0  0
   13.2041    3.4771   16.4846 C   0  0  0  0  0  0  0  0  0  0  0  0
   14.1238   -1.4471   15.7379 C   0  0  0  0  0  0  0  0  0  0  0  0
   15.2062   -0.6605   15.8353 F   0  0  0  0  0  0  0  0  0  0  0  0
   18.5440   -0.8388   16.8031 H   0  0  0  0  0  0  0  0  0  0  0  0
   16.9500   -0.7356   17.5642 H   0  0  0  0  0  0  0  0  0  0  0  0
   18.2352   -1.6620   18.3394 H   0  0  0  0  0  0  0  0  0  0  0  0
   18.2492   -3.2896   16.4616 H   0  0  0  0  0  0  0  0  0  0  0  0
   16.9849   -2.3830   15.6278 H   0  0  0  0  0  0  0  0  0  0  0  0
   14.5073   -2.7549   18.7062 H   0  0  0  0  0  0  0  0  0  0  0  0
   12.6423   -4.0216   17.4008 H   0  0  0  0  0  0  0  0  0  0  0  0
   11.0399   -3.7519   15.5338 H   0  0  0  0  0  0  0  0  0  0  0  0
   11.4091   -2.0498   13.8002 H   0  0  0  0  0  0  0  0  0  0  0  0
   14.1179   -0.8191   12.7794 H   0  0  0  0  0  0  0  0  0  0  0  0
   12.5500   -0.0630   13.0366 H   0  0  0  0  0  0  0  0  0  0  0  0
   15.2432    1.0031   13.8251 H   0  0  0  0  0  0  0  0  0  0  0  0
   12.4297    1.7824   14.7413 H   0  0  0  0  0  0  0  0  0  0  0  0
   16.0451    2.7445   14.8764 H   0  0  0  0  0  0  0  0  0  0  0  0
   15.5973    4.3130   15.5296 H   0  0  0  0  0  0  0  0  0  0  0  0
   16.7995    2.8662   17.1108 H   0  0  0  0  0  0  0  0  0  0  0  0
   15.6125    1.6539   17.1874 H   0  0  0  0  0  0  0  0  0  0  0  0
   17.1645    5.0006   20.3296 H   0  0  0  0  0  0  0  0  0  0  0  0
   18.0985    3.9419   19.2321 H   0  0  0  0  0  0  0  0  0  0  0  0
   16.9958    5.1743   18.5748 H   0  0  0  0  0  0  0  0  0  0  0  0
   13.8479    1.8571   17.9095 H   0  0  0  0  0  0  0  0  0  0  0  0
   13.2251    3.2815   18.5828 H   0  0  0  0  0  0  0  0  0  0  0  0
   13.1921    4.5739   16.4882 H   0  0  0  0  0  0  0  0  0  0  0  0
   12.1607    3.1414   16.4531 H   0  0  0  0  0  0  0  0  0  0  0  0
  1  2  1  0
  2  3  1  0
  3  4  2  0
  3  5  2  0
  3  6  1  0
  6  7  1  0
  7  8  2  0
  8  9  1  0
  9 10  2  0
 10 11  1  0
 11 12  1  0
 12 13  1  0
 13 14  2  3
 14 15  1  0
 15 16  1  0
 16 17  1  0
 17 18  1  0
 18 19  1  0
 19 20  1  0
 19 21  2  0
 18 22  1  0
 22 23  1  0
 11 24  2  0
 24 25  1  0
 24  7  1  0
 23 15  1  0
  1 26  1  0
  1 27  1  0
  1 28  1  0
  2 29  1  0
  2 30  1  0
  6 31  1  0
  8 32  1  0
  9 33  1  0
 10 34  1  0
 12 35  1  0
 12 36  1  0
 13 37  1  0
 14 38  1  0
 16 39  1  0
 16 40  1  0
 17 41  1  0
 17 42  1  0
 20 43  1  0
 20 44  1  0
 20 45  1  0
 22 46  1  0
 22 47  1  0
 23 48  1  0
 23 49  1  0
M  END
>  <Energy>  (198) 
115.21340307716676

>  <compound_id>  (198) 
1545

>  <target_id>  (198) 
1

>  <reference_id>  (198) 
6

>  <inspiration_ids>  (198) 
[10, 6]

>  <energy_score>  (198) 
20.3135084524597

>  <distance_score>  (198) 
1.3188535758240025

>  <path>  (198) 
/opt/xchem-fragalysis-2/maxwin/BulkDock/SCRATCH/505732/C1545-P6/C1545-P6.minimised.mol

>  <scratch_subdir>  (198) 
/opt/xchem-fragalysis-2/maxwin/BulkDock/SCRATCH/505732/C1545-P6

>  <fragmenstein_runtime>  (198) 
6.775148630142212

>  <fragmenstein_outcome>  (198) 
too moved

>  <fragmenstein_mode>  (198) 
expansion

>  <fragmenstein_error>  (198) 


$$$$
C1546-P10
     RDKit          3D

 37 38  0  0  0  0  0  0  0  0999 V2000
   17.8004   -2.2124   16.8076 C   0  0  0  0  0  0  0  0  0  0  0  0
   17.0175   -3.4525   16.4340 C   0  0  0  0  0  0  0  0  0  0  0  0
   15.8574   -3.9610   17.6986 S   0  0  0  0  0  0  0  0  0  0  0  0
   16.5494   -4.0126   18.9687 O   0  0  0  0  0  0  0  0  0  0  0  0
   15.1224   -5.1167   17.2336 O   0  0  0  0  0  0  0  0  0  0  0  0
   14.8056   -2.6442   17.8035 N   0  0  0  0  0  0  0  0  0  0  0  0
   13.8338   -2.4864   16.7642 C   0  0  0  0  0  0  0  0  0  0  0  0
   12.7795   -3.3859   16.6349 C   0  0  0  0  0  0  0  0  0  0  0  0
   11.8323   -3.2079   15.6278 C   0  0  0  0  0  0  0  0  0  0  0  0
   11.9381   -2.1438   14.7415 C   0  0  0  0  0  0  0  0  0  0  0  0
   12.9733   -1.2304   14.8717 C   0  0  0  0  0  0  0  0  0  0  0  0
   13.9005   -1.3843   15.9048 C   0  0  0  0  0  0  0  0  0  0  0  0
   14.9029   -0.4624   16.0670 O   0  0  0  0  0  0  0  0  0  0  0  0
   14.5533    0.8241   16.2682 C   0  0  0  0  0  0  0  0  0  0  0  0
   15.5381    1.7263   16.2434 N   0  0  0  0  0  0  0  0  0  0  0  0
   14.8677    2.9279   16.4825 O   0  0  0  0  0  0  0  0  0  0  0  0
   13.5463    2.6100   16.6367 C   0  0  0  0  0  0  0  0  0  0  0  0
   12.6059    3.7350   16.9411 C   0  0  0  0  0  0  0  0  0  0  0  0
   13.0334    4.4900   18.1989 C   0  0  0  0  0  0  0  0  0  0  0  0
   12.4629    4.6625   15.8079 N   0  0  0  0  0  0  0  0  0  0  0  0
   13.2998    1.3243   16.5086 N   0  0  0  0  0  0  0  0  0  0  0  0
   18.4139   -2.3919   17.6964 H   0  0  0  0  0  0  0  0  0  0  0  0
   18.4690   -1.9264   15.9899 H   0  0  0  0  0  0  0  0  0  0  0  0
   17.1485   -1.3641   17.0267 H   0  0  0  0  0  0  0  0  0  0  0  0
   17.6986   -4.2965   16.2830 H   0  0  0  0  0  0  0  0  0  0  0  0
   16.4555   -3.3058   15.5070 H   0  0  0  0  0  0  0  0  0  0  0  0
   14.4286   -2.6008   18.7529 H   0  0  0  0  0  0  0  0  0  0  0  0
   12.6834   -4.2355   17.3065 H   0  0  0  0  0  0  0  0  0  0  0  0
   11.0207   -3.9191   15.5147 H   0  0  0  0  0  0  0  0  0  0  0  0
   11.2167   -2.0327   13.9432 H   0  0  0  0  0  0  0  0  0  0  0  0
   13.0455   -0.4000   14.1751 H   0  0  0  0  0  0  0  0  0  0  0  0
   11.6176    3.2982   17.1296 H   0  0  0  0  0  0  0  0  0  0  0  0
   13.1204    3.8072   19.0520 H   0  0  0  0  0  0  0  0  0  0  0  0
   12.2993    5.2595   18.4629 H   0  0  0  0  0  0  0  0  0  0  0  0
   14.0044    4.9820   18.0690 H   0  0  0  0  0  0  0  0  0  0  0  0
   13.3768    5.0603   15.5838 H   0  0  0  0  0  0  0  0  0  0  0  0
   11.8829    5.4524   16.0881 H   0  0  0  0  0  0  0  0  0  0  0  0
  1  2  1  0
  2  3  1  0
  3  4  2  0
  3  5  2  0
  3  6  1  0
  6  7  1  0
  7  8  2  0
  8  9  1  0
  9 10  2  0
 10 11  1  0
 11 12  2  0
 12 13  1  0
 13 14  1  0
 14 15  2  0
 15 16  1  0
 16 17  1  0
 17 18  1  0
 18 19  1  0
 18 20  1  0
 17 21  2  0
 12  7  1  0
 21 14  1  0
  1 22  1  0
  1 23  1  0
  1 24  1  0
  2 25  1  0
  2 26  1  0
  6 27  1  0
  8 28  1  0
  9 29  1  0
 10 30  1  0
 11 31  1  0
 18 32  1  0
 19 33  1  0
 19 34  1  0
 19 35  1  0
 20 36  1  0
 20 37  1  0
M  END
>  <Energy>  (199) 
-3.390842744871656

>  <compound_id>  (199) 
1546

>  <target_id>  (199) 
1

>  <reference_id>  (199) 
10

>  <inspiration_ids>  (199) 
[10, 8]

>  <energy_score>  (199) 
-45.92480822103454

>  <distance_score>  (199) 
0.656622308370163

>  <path>  (199) 
/opt/xchem-fragalysis-2/maxwin/BulkDock/SCRATCH/505732/C1546-P10/C1546-P10.minimised.mol

>  <scratch_subdir>  (199) 
/opt/xchem-fragalysis-2/maxwin/BulkDock/SCRATCH/505732/C1546-P10

>  <fragmenstein_runtime>  (199) 
1.6650316715240479

>  <fragmenstein_outcome>  (199) 
acceptable

>  <fragmenstein_mode>  (199) 
expansion

>  <fragmenstein_error>  (199) 


$$$$
C1546-P8
     RDKit          3D

 37 38  0  0  0  0  0  0  0  0999 V2000
   17.8349   -1.6722   17.2415 C   0  0  0  0  0  0  0  0  0  0  0  0
   17.2893   -2.8696   16.5044 C   0  0  0  0  0  0  0  0  0  0  0  0
   16.0704   -3.7809   17.4296 S   0  0  0  0  0  0  0  0  0  0  0  0
   16.6226   -4.1256   18.7227 O   0  0  0  0  0  0  0  0  0  0  0  0
   15.5456   -4.8087   16.5620 O   0  0  0  0  0  0  0  0  0  0  0  0
   14.8685   -2.6401   17.7514 N   0  0  0  0  0  0  0  0  0  0  0  0
   13.8450   -2.4798   16.7661 C   0  0  0  0  0  0  0  0  0  0  0  0
   12.8181   -3.4152   16.6726 C   0  0  0  0  0  0  0  0  0  0  0  0
   11.8473   -3.2779   15.6824 C   0  0  0  0  0  0  0  0  0  0  0  0
   11.8989   -2.2208   14.7810 C   0  0  0  0  0  0  0  0  0  0  0  0
   12.9172   -1.2821   14.8696 C   0  0  0  0  0  0  0  0  0  0  0  0
   13.8779   -1.4011   15.8768 C   0  0  0  0  0  0  0  0  0  0  0  0
   14.8781   -0.4705   15.9922 O   0  0  0  0  0  0  0  0  0  0  0  0
   14.5298    0.8185   16.1767 C   0  0  0  0  0  0  0  0  0  0  0  0
   15.5182    1.7162   16.1385 N   0  0  0  0  0  0  0  0  0  0  0  0
   14.8511    2.9235   16.3546 O   0  0  0  0  0  0  0  0  0  0  0  0
   13.5279    2.6129   16.5143 C   0  0  0  0  0  0  0  0  0  0  0  0
   12.5905    3.7519   16.7752 C   0  0  0  0  0  0  0  0  0  0  0  0
   13.0761    4.6207   17.9349 C   0  0  0  0  0  0  0  0  0  0  0  0
   12.3826    4.5796   15.5719 N   0  0  0  0  0  0  0  0  0  0  0  0
   13.2780    1.3249   16.4082 N   0  0  0  0  0  0  0  0  0  0  0  0
   18.3356   -1.9762   18.1664 H   0  0  0  0  0  0  0  0  0  0  0  0
   18.5660   -1.1449   16.6209 H   0  0  0  0  0  0  0  0  0  0  0  0
   17.0483   -0.9636   17.5130 H   0  0  0  0  0  0  0  0  0  0  0  0
   18.0972   -3.5737   16.2794 H   0  0  0  0  0  0  0  0  0  0  0  0
   16.8308   -2.5741   15.5560 H   0  0  0  0  0  0  0  0  0  0  0  0
   14.5303   -2.7787   18.7064 H   0  0  0  0  0  0  0  0  0  0  0  0
   12.7780   -4.2698   17.3424 H   0  0  0  0  0  0  0  0  0  0  0  0
   11.0653   -4.0226   15.5858 H   0  0  0  0  0  0  0  0  0  0  0  0
   11.1548   -2.1427   13.9976 H   0  0  0  0  0  0  0  0  0  0  0  0
   12.9558   -0.4640   14.1557 H   0  0  0  0  0  0  0  0  0  0  0  0
   11.6182    3.3248   17.0443 H   0  0  0  0  0  0  0  0  0  0  0  0
   13.2370    4.0168   18.8351 H   0  0  0  0  0  0  0  0  0  0  0  0
   12.3406    5.3953   18.1789 H   0  0  0  0  0  0  0  0  0  0  0  0
   14.0236    5.1205   17.7014 H   0  0  0  0  0  0  0  0  0  0  0  0
   13.2769    4.9862   15.2934 H   0  0  0  0  0  0  0  0  0  0  0  0
   11.7880    5.3701   15.8177 H   0  0  0  0  0  0  0  0  0  0  0  0
  1  2  1  0
  2  3  1  0
  3  4  2  0
  3  5  2  0
  3  6  1  0
  6  7  1  0
  7  8  2  0
  8  9  1  0
  9 10  2  0
 10 11  1  0
 11 12  2  0
 12 13  1  0
 13 14  1  0
 14 15  2  0
 15 16  1  0
 16 17  1  0
 17 18  1  0
 18 19  1  0
 18 20  1  0
 17 21  2  0
 12  7  1  0
 21 14  1  0
  1 22  1  0
  1 23  1  0
  1 24  1  0
  2 25  1  0
  2 26  1  0
  6 27  1  0
  8 28  1  0
  9 29  1  0
 10 30  1  0
 11 31  1  0
 18 32  1  0
 19 33  1  0
 19 34  1  0
 19 35  1  0
 20 36  1  0
 20 37  1  0
M  END
>  <Energy>  (200) 
-4.5726407357305794

>  <compound_id>  (200) 
1546

>  <target_id>  (200) 
1

>  <reference_id>  (200) 
8

>  <inspiration_ids>  (200) 
[10, 8]

>  <energy_score>  (200) 
-47.10660621189486

>  <distance_score>  (200) 
0.7360457645375006

>  <path>  (200) 
/opt/xchem-fragalysis-2/maxwin/BulkDock/SCRATCH/505732/C1546-P8/C1546-P8.minimised.mol

>  <scratch_subdir>  (200) 
/opt/xchem-fragalysis-2/maxwin/BulkDock/SCRATCH/505732/C1546-P8

>  <fragmenstein_runtime>  (200) 
1.6567749977111816

>  <fragmenstein_outcome>  (200) 
acceptable

>  <fragmenstein_mode>  (200) 
expansion

>  <fragmenstein_error>  (200) 


$$$$
C1550-P10
     RDKit          3D

 45 46  0  0  0  0  0  0  0  0999 V2000
   16.7173   -5.9813   19.3110 C   0  0  0  0  0  0  0  0  0  0  0  0
   16.4326   -4.6428   18.6492 C   0  0  0  0  0  0  0  0  0  0  0  0
   15.5625   -3.5211   19.7375 S   0  0  0  0  0  0  0  0  0  0  0  0
   16.3768   -3.4878   20.9435 O   0  0  0  0  0  0  0  0  0  0  0  0
   14.0965   -3.9595   19.7698 N   0  0  0  0  0  0  0  0  0  0  0  0
   13.6201   -4.6298   20.9544 C   0  0  0  0  0  0  0  0  0  0  0  0
   12.4786   -5.3749   20.6301 O   0  0  0  0  0  0  0  0  0  0  0  0
   15.6393   -1.8436   19.0887 C   0  0  0  0  0  0  0  0  0  0  0  0
   15.0958   -0.8882   20.1812 C   0  0  0  0  0  0  0  0  0  0  0  0
   15.7311    0.4967   20.1032 C   0  0  0  0  0  0  0  0  0  0  0  0
   16.1965    0.8356   18.6958 C   0  0  0  0  0  0  0  0  0  0  0  0
   15.2571    0.2264   17.6614 C   0  0  0  0  0  0  0  0  0  0  0  0
   15.1897   -1.3719   17.6344 C   0  0  0  0  0  0  0  0  0  0  0  0
   13.8490   -1.7714   16.9300 C   0  0  0  0  0  0  0  0  0  0  0  0
   13.3379   -3.0716   16.9209 C   0  0  0  0  0  0  0  0  0  0  0  0
   12.2103   -3.4237   16.1643 C   0  0  0  0  0  0  0  0  0  0  0  0
   11.5855   -2.5037   15.3360 C   0  0  0  0  0  0  0  0  0  0  0  0
   12.0823   -1.2172   15.2766 C   0  0  0  0  0  0  0  0  0  0  0  0
   13.1897   -0.8643   16.0561 C   0  0  0  0  0  0  0  0  0  0  0  0
   16.2738   -1.8158   16.6300 C   0  0  0  0  0  0  0  0  0  0  0  0
   16.3910   -3.1579   16.5926 F   0  0  0  0  0  0  0  0  0  0  0  0
   15.9381   -1.4328   15.3731 F   0  0  0  0  0  0  0  0  0  0  0  0
   17.2438   -6.6414   18.6147 H   0  0  0  0  0  0  0  0  0  0  0  0
   15.7914   -6.4789   19.6141 H   0  0  0  0  0  0  0  0  0  0  0  0
   17.3419   -5.8618   20.2016 H   0  0  0  0  0  0  0  0  0  0  0  0
   15.8181   -4.8214   17.7667 H   0  0  0  0  0  0  0  0  0  0  0  0
   17.3780   -4.1665   18.3762 H   0  0  0  0  0  0  0  0  0  0  0  0
   13.3701   -3.9099   21.7380 H   0  0  0  0  0  0  0  0  0  0  0  0
   14.3574   -5.3301   21.3586 H   0  0  0  0  0  0  0  0  0  0  0  0
   12.0353   -4.7912   19.9763 H   0  0  0  0  0  0  0  0  0  0  0  0
   16.7335   -1.7044   19.1115 H   0  0  0  0  0  0  0  0  0  0  0  0
   14.0147   -0.8012   20.0743 H   0  0  0  0  0  0  0  0  0  0  0  0
   15.2541   -1.2716   21.1955 H   0  0  0  0  0  0  0  0  0  0  0  0
   16.5885    0.5566   20.7842 H   0  0  0  0  0  0  0  0  0  0  0  0
   15.0060    1.2415   20.4529 H   0  0  0  0  0  0  0  0  0  0  0  0
   17.2185    0.4740   18.5331 H   0  0  0  0  0  0  0  0  0  0  0  0
   16.2329    1.9248   18.5776 H   0  0  0  0  0  0  0  0  0  0  0  0
   15.5460    0.6155   16.6762 H   0  0  0  0  0  0  0  0  0  0  0  0
   14.2641    0.6376   17.8873 H   0  0  0  0  0  0  0  0  0  0  0  0
   13.8068   -3.8770   17.4657 H   0  0  0  0  0  0  0  0  0  0  0  0
   11.8323   -4.4403   16.2280 H   0  0  0  0  0  0  0  0  0  0  0  0
   10.7324   -2.7947   14.7293 H   0  0  0  0  0  0  0  0  0  0  0  0
   11.6250   -0.4953   14.6039 H   0  0  0  0  0  0  0  0  0  0  0  0
   13.5534    0.1472   15.8962 H   0  0  0  0  0  0  0  0  0  0  0  0
   17.2590   -1.3980   16.8591 H   0  0  0  0  0  0  0  0  0  0  0  0
  1  2  1  0
  2  3  1  0
  3  4  2  0
  3  5  2  0
  5  6  1  0
  6  7  1  0
  3  8  1  0
  8  9  1  0
  9 10  1  0
 10 11  1  0
 11 12  1  0
 12 13  1  0
 13 14  1  0
 14 15  2  0
 15 16  1  0
 16 17  2  0
 17 18  1  0
 18 19  2  0
 13 20  1  0
 20 21  1  0
 20 22  1  0
 13  8  1  0
 19 14  1  0
  1 23  1  0
  1 24  1  0
  1 25  1  0
  2 26  1  0
  2 27  1  0
  6 28  1  0
  6 29  1  0
  7 30  1  0
  8 31  1  0
  9 32  1  0
  9 33  1  0
 10 34  1  0
 10 35  1  0
 11 36  1  0
 11 37  1  0
 12 38  1  0
 12 39  1  0
 15 40  1  0
 16 41  1  0
 17 42  1  0
 18 43  1  0
 19 44  1  0
 20 45  1  0
M  END
>  <Energy>  (201) 
-7.3644446300821524

>  <compound_id>  (201) 
1550

>  <target_id>  (201) 
1

>  <reference_id>  (201) 
10

>  <inspiration_ids>  (201) 
[10, 23]

>  <energy_score>  (201) 
-79.34254087842126

>  <distance_score>  (201) 
0.9819963058005706

>  <path>  (201) 
/opt/xchem-fragalysis-2/maxwin/BulkDock/SCRATCH/505732/C1550-P10/C1550-P10.minimised.mol

>  <scratch_subdir>  (201) 
/opt/xchem-fragalysis-2/maxwin/BulkDock/SCRATCH/505732/C1550-P10

>  <fragmenstein_runtime>  (201) 
17.43136215209961

>  <fragmenstein_outcome>  (201) 
acceptable

>  <fragmenstein_mode>  (201) 
expansion

>  <fragmenstein_error>  (201) 


$$$$
C1550-P23
     RDKit          3D

 45 46  0  0  0  0  0  0  0  0999 V2000
   17.3960   -5.5875   20.3247 C   0  0  0  0  0  0  0  0  0  0  0  0
   16.8951   -4.6086   19.2755 C   0  0  0  0  0  0  0  0  0  0  0  0
   15.7350   -3.4166   19.9439 S   0  0  0  0  0  0  0  0  0  0  0  0
   16.2712   -3.0871   21.2560 O   0  0  0  0  0  0  0  0  0  0  0  0
   14.3265   -3.9981   19.7823 N   0  0  0  0  0  0  0  0  0  0  0  0
   13.7055   -4.5618   20.9595 C   0  0  0  0  0  0  0  0  0  0  0  0
   12.5742   -5.3022   20.5857 O   0  0  0  0  0  0  0  0  0  0  0  0
   15.8539   -1.8789   19.0127 C   0  0  0  0  0  0  0  0  0  0  0  0
   15.0782   -0.7801   19.7732 C   0  0  0  0  0  0  0  0  0  0  0  0
   15.5859    0.6161   19.4494 C   0  0  0  0  0  0  0  0  0  0  0  0
   15.6309    0.8639   17.9518 C   0  0  0  0  0  0  0  0  0  0  0  0
   16.3208   -0.2720   17.1985 C   0  0  0  0  0  0  0  0  0  0  0  0
   15.6925   -1.7130   17.4451 C   0  0  0  0  0  0  0  0  0  0  0  0
   14.3333   -1.8971   16.6928 C   0  0  0  0  0  0  0  0  0  0  0  0
   13.4964   -3.0061   16.8966 C   0  0  0  0  0  0  0  0  0  0  0  0
   12.3523   -3.2428   16.1153 C   0  0  0  0  0  0  0  0  0  0  0  0
   12.0253   -2.3994   15.0637 C   0  0  0  0  0  0  0  0  0  0  0  0
   12.8589   -1.3293   14.7828 C   0  0  0  0  0  0  0  0  0  0  0  0
   13.9909   -1.0875   15.5789 C   0  0  0  0  0  0  0  0  0  0  0  0
   16.6173   -2.6598   16.6762 C   0  0  0  0  0  0  0  0  0  0  0  0
   16.2447   -3.9452   16.8357 F   0  0  0  0  0  0  0  0  0  0  0  0
   16.5265   -2.4053   15.3464 F   0  0  0  0  0  0  0  0  0  0  0  0
   18.0638   -6.3229   19.8651 H   0  0  0  0  0  0  0  0  0  0  0  0
   16.5664   -6.1268   20.7917 H   0  0  0  0  0  0  0  0  0  0  0  0
   17.9545   -5.0757   21.1145 H   0  0  0  0  0  0  0  0  0  0  0  0
   16.3880   -5.1811   18.4978 H   0  0  0  0  0  0  0  0  0  0  0  0
   17.7410   -4.0582   18.8580 H   0  0  0  0  0  0  0  0  0  0  0  0
   13.4013   -3.7778   21.6579 H   0  0  0  0  0  0  0  0  0  0  0  0
   14.3802   -5.2437   21.4855 H   0  0  0  0  0  0  0  0  0  0  0  0
   12.1558   -4.7305   19.9099 H   0  0  0  0  0  0  0  0  0  0  0  0
   16.9194   -1.6620   19.2062 H   0  0  0  0  0  0  0  0  0  0  0  0
   14.0264   -0.8513   19.5166 H   0  0  0  0  0  0  0  0  0  0  0  0
   15.1366   -0.9136   20.8589 H   0  0  0  0  0  0  0  0  0  0  0  0
   16.5934    0.7382   19.8662 H   0  0  0  0  0  0  0  0  0  0  0  0
   14.9510    1.3675   19.9321 H   0  0  0  0  0  0  0  0  0  0  0  0
   16.1605    1.8039   17.7576 H   0  0  0  0  0  0  0  0  0  0  0  0
   14.6207    0.9966   17.5650 H   0  0  0  0  0  0  0  0  0  0  0  0
   17.3713   -0.2857   17.5275 H   0  0  0  0  0  0  0  0  0  0  0  0
   16.3906   -0.0224   16.1348 H   0  0  0  0  0  0  0  0  0  0  0  0
   13.7369   -3.7667   17.6258 H   0  0  0  0  0  0  0  0  0  0  0  0
   11.7464   -4.1239   16.3156 H   0  0  0  0  0  0  0  0  0  0  0  0
   11.1534   -2.5954   14.4457 H   0  0  0  0  0  0  0  0  0  0  0  0
   12.6345   -0.6758   13.9425 H   0  0  0  0  0  0  0  0  0  0  0  0
   14.6007   -0.2449   15.2685 H   0  0  0  0  0  0  0  0  0  0  0  0
   17.6675   -2.5676   16.9695 H   0  0  0  0  0  0  0  0  0  0  0  0
  1  2  1  0
  2  3  1  0
  3  4  2  0
  3  5  2  0
  5  6  1  0
  6  7  1  0
  3  8  1  0
  8  9  1  0
  9 10  1  0
 10 11  1  0
 11 12  1  0
 12 13  1  0
 13 14  1  0
 14 15  2  0
 15 16  1  0
 16 17  2  0
 17 18  1  0
 18 19  2  0
 13 20  1  0
 20 21  1  0
 20 22  1  0
 13  8  1  0
 19 14  1  0
  1 23  1  0
  1 24  1  0
  1 25  1  0
  2 26  1  0
  2 27  1  0
  6 28  1  0
  6 29  1  0
  7 30  1  0
  8 31  1  0
  9 32  1  0
  9 33  1  0
 10 34  1  0
 10 35  1  0
 11 36  1  0
 11 37  1  0
 12 38  1  0
 12 39  1  0
 15 40  1  0
 16 41  1  0
 17 42  1  0
 18 43  1  0
 19 44  1  0
 20 45  1  0
M  END
>  <Energy>  (202) 
-13.350502491773785

>  <compound_id>  (202) 
1550

>  <target_id>  (202) 
1

>  <reference_id>  (202) 
23

>  <inspiration_ids>  (202) 
[10, 23]

>  <energy_score>  (202) 
-85.32859874011342

>  <distance_score>  (202) 
1.1482604091120066

>  <path>  (202) 
/opt/xchem-fragalysis-2/maxwin/BulkDock/SCRATCH/505732/C1550-P23/C1550-P23.minimised.mol

>  <scratch_subdir>  (202) 
/opt/xchem-fragalysis-2/maxwin/BulkDock/SCRATCH/505732/C1550-P23

>  <fragmenstein_runtime>  (202) 
17.069786071777344

>  <fragmenstein_outcome>  (202) 
too moved

>  <fragmenstein_mode>  (202) 
expansion

>  <fragmenstein_error>  (202) 


$$$$
C1552-P10
     RDKit          3D

 27 27  0  0  0  0  0  0  0  0999 V2000
   17.6962   -2.3022   16.6065 C   0  0  0  0  0  0  0  0  0  0  0  0
   16.8381   -3.5212   16.3407 C   0  0  0  0  0  0  0  0  0  0  0  0
   15.7629   -3.9430   17.7094 S   0  0  0  0  0  0  0  0  0  0  0  0
   16.5590   -3.9362   18.9178 O   0  0  0  0  0  0  0  0  0  0  0  0
   15.0035   -5.1182   17.3430 O   0  0  0  0  0  0  0  0  0  0  0  0
   14.7385   -2.6167   17.8177 N   0  0  0  0  0  0  0  0  0  0  0  0
   13.7708   -2.3422   16.7877 C   0  0  0  0  0  0  0  0  0  0  0  0
   12.8013   -3.3043   16.4952 C   0  0  0  0  0  0  0  0  0  0  0  0
   11.8265   -3.0521   15.5362 C   0  0  0  0  0  0  0  0  0  0  0  0
   11.8191   -1.8456   14.8503 C   0  0  0  0  0  0  0  0  0  0  0  0
   12.7698   -0.8567   15.1174 C   0  0  0  0  0  0  0  0  0  0  0  0
   12.6888    0.4372   14.3499 C   0  0  0  0  0  0  0  0  0  0  0  0
   13.7299   -1.0873   16.1271 C   0  0  0  0  0  0  0  0  0  0  0  0
   14.6278   -0.0970   16.4809 N   0  0  0  0  0  0  0  0  0  0  0  0
   14.0589    0.8774   16.9923 O   0  0  0  0  0  0  0  0  0  0  0  0
   18.3235   -2.0856   15.7363 H   0  0  0  0  0  0  0  0  0  0  0  0
   17.0945   -1.4165   16.8186 H   0  0  0  0  0  0  0  0  0  0  0  0
   18.3563   -2.4663   17.4642 H   0  0  0  0  0  0  0  0  0  0  0  0
   16.2128   -3.3847   15.4535 H   0  0  0  0  0  0  0  0  0  0  0  0
   17.4742   -4.3961   16.1697 H   0  0  0  0  0  0  0  0  0  0  0  0
   15.1631   -1.8179   18.2921 H   0  0  0  0  0  0  0  0  0  0  0  0
   12.7630   -4.2466   17.0373 H   0  0  0  0  0  0  0  0  0  0  0  0
   11.0659   -3.7982   15.3208 H   0  0  0  0  0  0  0  0  0  0  0  0
   11.0524   -1.6709   14.1044 H   0  0  0  0  0  0  0  0  0  0  0  0
   12.2292    1.2151   14.9675 H   0  0  0  0  0  0  0  0  0  0  0  0
   13.6823    0.7641   14.0264 H   0  0  0  0  0  0  0  0  0  0  0  0
   12.0845    0.3240   13.4430 H   0  0  0  0  0  0  0  0  0  0  0  0
  1  2  1  0
  2  3  1  0
  3  4  2  0
  3  5  2  0
  3  6  1  0
  6  7  1  0
  7  8  2  0
  8  9  1  0
  9 10  2  0
 10 11  1  0
 11 12  1  0
 11 13  2  0
 13 14  1  0
 14 15  2  0
 13  7  1  0
  1 16  1  0
  1 17  1  0
  1 18  1  0
  2 19  1  0
  2 20  1  0
  6 21  1  0
  8 22  1  0
  9 23  1  0
 10 24  1  0
 12 25  1  0
 12 26  1  0
 12 27  1  0
M  END
>  <Energy>  (203) 
-7.5449592477863794

>  <compound_id>  (203) 
1552

>  <target_id>  (203) 
1

>  <reference_id>  (203) 
10

>  <inspiration_ids>  (203) 
[10, 27]

>  <energy_score>  (203) 
-29.259582508731654

>  <distance_score>  (203) 
0.8100038470594334

>  <path>  (203) 
/opt/xchem-fragalysis-2/maxwin/BulkDock/SCRATCH/505732/C1552-P10/C1552-P10.minimised.mol

>  <scratch_subdir>  (203) 
/opt/xchem-fragalysis-2/maxwin/BulkDock/SCRATCH/505732/C1552-P10

>  <fragmenstein_runtime>  (203) 
1.249779462814331

>  <fragmenstein_outcome>  (203) 
acceptable

>  <fragmenstein_mode>  (203) 
expansion

>  <fragmenstein_error>  (203) 


$$$$
C1552-P27
     RDKit          3D

 27 27  0  0  0  0  0  0  0  0999 V2000
   17.6916   -2.1377   16.6049 C   0  0  0  0  0  0  0  0  0  0  0  0
   16.8416   -3.3755   16.4160 C   0  0  0  0  0  0  0  0  0  0  0  0
   15.8046   -3.7416   17.8293 S   0  0  0  0  0  0  0  0  0  0  0  0
   16.6222   -3.6601   19.0196 O   0  0  0  0  0  0  0  0  0  0  0  0
   15.0640   -4.9476   17.5428 O   0  0  0  0  0  0  0  0  0  0  0  0
   14.7423   -2.4448   17.8899 N   0  0  0  0  0  0  0  0  0  0  0  0
   13.7499   -2.2568   16.8626 C   0  0  0  0  0  0  0  0  0  0  0  0
   12.8083   -3.2624   16.6312 C   0  0  0  0  0  0  0  0  0  0  0  0
   11.8277   -3.0975   15.6592 C   0  0  0  0  0  0  0  0  0  0  0  0
   11.7748   -1.9305   14.9096 C   0  0  0  0  0  0  0  0  0  0  0  0
   12.6935   -0.8976   15.1196 C   0  0  0  0  0  0  0  0  0  0  0  0
   12.5706    0.3526   14.2878 C   0  0  0  0  0  0  0  0  0  0  0  0
   13.6709   -1.0461   16.1287 C   0  0  0  0  0  0  0  0  0  0  0  0
   14.5544   -0.0201   16.4047 N   0  0  0  0  0  0  0  0  0  0  0  0
   13.9845    0.9378   16.9442 O   0  0  0  0  0  0  0  0  0  0  0  0
   18.2934   -1.9526   15.7098 H   0  0  0  0  0  0  0  0  0  0  0  0
   17.0840   -1.2503   16.7941 H   0  0  0  0  0  0  0  0  0  0  0  0
   18.3756   -2.2562   17.4513 H   0  0  0  0  0  0  0  0  0  0  0  0
   16.1943   -3.2877   15.5386 H   0  0  0  0  0  0  0  0  0  0  0  0
   17.4833   -4.2510   16.2714 H   0  0  0  0  0  0  0  0  0  0  0  0
   15.1514   -1.6048   18.3043 H   0  0  0  0  0  0  0  0  0  0  0  0
   12.8040   -4.1758   17.2219 H   0  0  0  0  0  0  0  0  0  0  0  0
   11.1008   -3.8846   15.4798 H   0  0  0  0  0  0  0  0  0  0  0  0
   11.0015   -1.8267   14.1560 H   0  0  0  0  0  0  0  0  0  0  0  0
   12.1361    1.1617   14.8830 H   0  0  0  0  0  0  0  0  0  0  0  0
   13.5475    0.6628   13.9031 H   0  0  0  0  0  0  0  0  0  0  0  0
   11.9250    0.1904   13.4175 H   0  0  0  0  0  0  0  0  0  0  0  0
  1  2  1  0
  2  3  1  0
  3  4  2  0
  3  5  2  0
  3  6  1  0
  6  7  1  0
  7  8  2  0
  8  9  1  0
  9 10  2  0
 10 11  1  0
 11 12  1  0
 11 13  2  0
 13 14  1  0
 14 15  2  0
 13  7  1  0
  1 16  1  0
  1 17  1  0
  1 18  1  0
  2 19  1  0
  2 20  1  0
  6 21  1  0
  8 22  1  0
  9 23  1  0
 10 24  1  0
 12 25  1  0
 12 26  1  0
 12 27  1  0
M  END
>  <Energy>  (204) 
-7.7630164798838521

>  <compound_id>  (204) 
1552

>  <target_id>  (204) 
1

>  <reference_id>  (204) 
27

>  <inspiration_ids>  (204) 
[10, 27]

>  <energy_score>  (204) 
-29.47763974083037

>  <distance_score>  (204) 
0.8469232969884973

>  <path>  (204) 
/opt/xchem-fragalysis-2/maxwin/BulkDock/SCRATCH/505732/C1552-P27/C1552-P27.minimised.mol

>  <scratch_subdir>  (204) 
/opt/xchem-fragalysis-2/maxwin/BulkDock/SCRATCH/505732/C1552-P27

>  <fragmenstein_runtime>  (204) 
1.047548770904541

>  <fragmenstein_outcome>  (204) 
acceptable

>  <fragmenstein_mode>  (204) 
expansion

>  <fragmenstein_error>  (204) 


$$$$
C1555-P10
     RDKit          3D

 50 51  0  0  0  0  0  0  0  0999 V2000
   14.6626   -2.3331   22.9159 C   0  0  0  0  0  0  0  0  0  0  0  0
   15.8641   -3.2508   22.8381 C   0  0  0  0  0  0  0  0  0  0  0  0
   17.1669   -2.4816   23.1378 C   0  0  0  0  0  0  0  0  0  0  0  0
   18.4000   -3.2440   22.6495 C   0  0  0  0  0  0  0  0  0  0  0  0
   18.2899   -3.6977   21.1844 C   0  0  0  0  0  0  0  0  0  0  0  0
   16.9525   -3.4514   20.5986 N   0  0  0  0  0  0  0  0  0  0  0  0
   16.8061   -2.0464   19.6697 S   0  0  0  0  0  0  0  0  0  0  0  0
   15.4665   -0.9572   19.7836 C   0  0  0  0  0  0  0  0  0  0  0  0
   17.9850   -1.0106   20.1842 O   0  0  0  0  0  0  0  0  0  0  0  0
   17.3626   -2.1889   18.0117 C   0  0  0  0  0  0  0  0  0  0  0  0
   17.1255   -3.1803   16.9147 C   0  0  0  0  0  0  0  0  0  0  0  0
   15.7810   -4.2813   17.2655 S   0  0  0  0  0  0  0  0  0  0  0  0
   16.1415   -5.0868   18.4085 O   0  0  0  0  0  0  0  0  0  0  0  0
   15.3866   -4.9427   16.0485 O   0  0  0  0  0  0  0  0  0  0  0  0
   14.5563   -3.2344   17.7482 N   0  0  0  0  0  0  0  0  0  0  0  0
   13.6839   -2.7131   16.7461 C   0  0  0  0  0  0  0  0  0  0  0  0
   12.5554   -3.4344   16.3675 C   0  0  0  0  0  0  0  0  0  0  0  0
   11.7058   -2.9303   15.3794 C   0  0  0  0  0  0  0  0  0  0  0  0
   11.9820   -1.7071   14.7703 C   0  0  0  0  0  0  0  0  0  0  0  0
   13.1155   -0.9883   15.1359 C   0  0  0  0  0  0  0  0  0  0  0  0
   13.9625   -1.4981   16.1138 C   0  0  0  0  0  0  0  0  0  0  0  0
   15.0379   -0.7781   16.4634 F   0  0  0  0  0  0  0  0  0  0  0  0
   15.9599   -4.0605   21.5313 C   0  0  0  0  0  0  0  0  0  0  0  0
   14.6114   -4.6514   21.0239 C   0  0  0  0  0  0  0  0  0  0  0  0
   13.7747   -3.7625   20.2987 O   0  0  0  0  0  0  0  0  0  0  0  0
   14.7199   -1.7048   23.8126 H   0  0  0  0  0  0  0  0  0  0  0  0
   13.7406   -2.9134   23.0138 H   0  0  0  0  0  0  0  0  0  0  0  0
   14.5732   -1.6674   22.0649 H   0  0  0  0  0  0  0  0  0  0  0  0
   15.7487   -3.9813   23.6529 H   0  0  0  0  0  0  0  0  0  0  0  0
   17.2495   -2.2980   24.2160 H   0  0  0  0  0  0  0  0  0  0  0  0
   17.1415   -1.4926   22.6648 H   0  0  0  0  0  0  0  0  0  0  0  0
   19.2896   -2.6167   22.7776 H   0  0  0  0  0  0  0  0  0  0  0  0
   18.5411   -4.1275   23.2849 H   0  0  0  0  0  0  0  0  0  0  0  0
   19.0767   -3.2219   20.5863 H   0  0  0  0  0  0  0  0  0  0  0  0
   18.5213   -4.7694   21.1191 H   0  0  0  0  0  0  0  0  0  0  0  0
   15.5642   -0.3580   20.6903 H   0  0  0  0  0  0  0  0  0  0  0  0
   15.4895   -0.2827   18.9252 H   0  0  0  0  0  0  0  0  0  0  0  0
   14.5262   -1.4963   19.7892 H   0  0  0  0  0  0  0  0  0  0  0  0
   18.0694   -1.3871   17.7321 H   0  0  0  0  0  0  0  0  0  0  0  0
   16.9036   -2.6456   15.9880 H   0  0  0  0  0  0  0  0  0  0  0  0
   18.0297   -3.7761   16.7679 H   0  0  0  0  0  0  0  0  0  0  0  0
   14.1059   -3.5811   18.6140 H   0  0  0  0  0  0  0  0  0  0  0  0
   12.3377   -4.3971   16.8211 H   0  0  0  0  0  0  0  0  0  0  0  0
   10.8365   -3.5037   15.0649 H   0  0  0  0  0  0  0  0  0  0  0  0
   11.3219   -1.3215   13.9979 H   0  0  0  0  0  0  0  0  0  0  0  0
   13.3476   -0.0408   14.6608 H   0  0  0  0  0  0  0  0  0  0  0  0
   16.4407   -5.0007   21.8524 H   0  0  0  0  0  0  0  0  0  0  0  0
   14.8078   -5.5086   20.3742 H   0  0  0  0  0  0  0  0  0  0  0  0
   14.0349   -5.0530   21.8663 H   0  0  0  0  0  0  0  0  0  0  0  0
   13.2412   -3.2705   20.9574 H   0  0  0  0  0  0  0  0  0  0  0  0
  1  2  1  0
  2  3  1  0
  3  4  1  0
  4  5  1  0
  5  6  1  0
  6  7  1  0
  7  8  1  0
  7  9  2  0
  7 10  2  0
 10 11  1  0
 11 12  1  0
 12 13  2  0
 12 14  2  0
 12 15  1  0
 15 16  1  0
 16 17  2  0
 17 18  1  0
 18 19  2  0
 19 20  1  0
 20 21  2  0
 21 22  1  0
  6 23  1  0
 23 24  1  0
 24 25  1  0
 23  2  1  0
 21 16  1  0
  1 26  1  0
  1 27  1  0
  1 28  1  0
  2 29  1  0
  3 30  1  0
  3 31  1  0
  4 32  1  0
  4 33  1  0
  5 34  1  0
  5 35  1  0
  8 36  1  0
  8 37  1  0
  8 38  1  0
 10 39  1  0
 11 40  1  0
 11 41  1  0
 15 42  1  0
 17 43  1  0
 18 44  1  0
 19 45  1  0
 20 46  1  0
 23 47  1  0
 24 48  1  0
 24 49  1  0
 25 50  1  0
M  END
>  <Energy>  (205) 
-7.1417254213221479

>  <compound_id>  (205) 
1555

>  <target_id>  (205) 
1

>  <reference_id>  (205) 
10

>  <inspiration_ids>  (205) 
[10, 60]

>  <energy_score>  (205) 
-62.605368620765944

>  <distance_score>  (205) 
1.3802242900702275

>  <path>  (205) 
/opt/xchem-fragalysis-2/maxwin/BulkDock/SCRATCH/505732/C1555-P10/C1555-P10.minimised.mol

>  <scratch_subdir>  (205) 
/opt/xchem-fragalysis-2/maxwin/BulkDock/SCRATCH/505732/C1555-P10

>  <fragmenstein_runtime>  (205) 
5.878709316253662

>  <fragmenstein_outcome>  (205) 
too moved

>  <fragmenstein_mode>  (205) 
expansion

>  <fragmenstein_error>  (205) 


$$$$
C1555-P60
     RDKit          3D

 50 51  0  0  0  0  0  0  0  0999 V2000
   14.4564   -2.5168   22.8838 C   0  0  0  0  0  0  0  0  0  0  0  0
   15.6159   -3.4931   22.9468 C   0  0  0  0  0  0  0  0  0  0  0  0
   16.9214   -2.7925   23.3647 C   0  0  0  0  0  0  0  0  0  0  0  0
   18.1508   -3.6455   23.0446 C   0  0  0  0  0  0  0  0  0  0  0  0
   18.1690   -4.1817   21.6030 C   0  0  0  0  0  0  0  0  0  0  0  0
   16.9370   -3.8717   20.8418 N   0  0  0  0  0  0  0  0  0  0  0  0
   16.9894   -2.4500   19.9219 S   0  0  0  0  0  0  0  0  0  0  0  0
   15.7337   -1.2591   19.9118 C   0  0  0  0  0  0  0  0  0  0  0  0
   18.1866   -1.5078   20.5611 O   0  0  0  0  0  0  0  0  0  0  0  0
   17.7222   -2.6225   18.3347 C   0  0  0  0  0  0  0  0  0  0  0  0
   17.4996   -3.5604   17.1911 C   0  0  0  0  0  0  0  0  0  0  0  0
   15.8301   -4.1443   17.1328 S   0  0  0  0  0  0  0  0  0  0  0  0
   15.5755   -4.9555   18.2965 O   0  0  0  0  0  0  0  0  0  0  0  0
   15.6399   -4.7067   15.8212 O   0  0  0  0  0  0  0  0  0  0  0  0
   14.9790   -2.6950   17.2604 N   0  0  0  0  0  0  0  0  0  0  0  0
   13.8172   -2.4755   16.4564 C   0  0  0  0  0  0  0  0  0  0  0  0
   12.8094   -3.4171   16.2993 C   0  0  0  0  0  0  0  0  0  0  0  0
   11.6880   -3.0907   15.5331 C   0  0  0  0  0  0  0  0  0  0  0  0
   11.5434   -1.8163   14.9818 C   0  0  0  0  0  0  0  0  0  0  0  0
   12.5275   -0.8560   15.1788 C   0  0  0  0  0  0  0  0  0  0  0  0
   13.6496   -1.1928   15.9199 C   0  0  0  0  0  0  0  0  0  0  0  0
   14.6022   -0.2691   16.1278 F   0  0  0  0  0  0  0  0  0  0  0  0
   15.7953   -4.3532   21.6803 C   0  0  0  0  0  0  0  0  0  0  0  0
   14.4634   -4.8219   21.0323 C   0  0  0  0  0  0  0  0  0  0  0  0
   13.7582   -3.8137   20.3343 O   0  0  0  0  0  0  0  0  0  0  0  0
   14.4455   -1.8810   23.7768 H   0  0  0  0  0  0  0  0  0  0  0  0
   13.5026   -3.0535   22.8805 H   0  0  0  0  0  0  0  0  0  0  0  0
   14.4824   -1.8594   22.0231 H   0  0  0  0  0  0  0  0  0  0  0  0
   15.3775   -4.1924   23.7627 H   0  0  0  0  0  0  0  0  0  0  0  0
   16.8968   -2.5726   24.4391 H   0  0  0  0  0  0  0  0  0  0  0  0
   17.0092   -1.8217   22.8640 H   0  0  0  0  0  0  0  0  0  0  0  0
   19.0570   -3.0582   23.2327 H   0  0  0  0  0  0  0  0  0  0  0  0
   18.1765   -4.4962   23.7374 H   0  0  0  0  0  0  0  0  0  0  0  0
   19.0572   -3.8104   21.0767 H   0  0  0  0  0  0  0  0  0  0  0  0
   18.3139   -5.2703   21.6258 H   0  0  0  0  0  0  0  0  0  0  0  0
   15.7594   -0.6981   20.8467 H   0  0  0  0  0  0  0  0  0  0  0  0
   15.9276   -0.5573   19.0967 H   0  0  0  0  0  0  0  0  0  0  0  0
   14.7613   -1.7171   19.7616 H   0  0  0  0  0  0  0  0  0  0  0  0
   18.5781   -1.9396   18.1849 H   0  0  0  0  0  0  0  0  0  0  0  0
   17.7108   -3.0374   16.2544 H   0  0  0  0  0  0  0  0  0  0  0  0
   18.1717   -4.4162   17.2838 H   0  0  0  0  0  0  0  0  0  0  0  0
   15.5868   -1.8750   17.2094 H   0  0  0  0  0  0  0  0  0  0  0  0
   12.8894   -4.4085   16.7365 H   0  0  0  0  0  0  0  0  0  0  0  0
   10.9217   -3.8396   15.3534 H   0  0  0  0  0  0  0  0  0  0  0  0
   10.6607   -1.5748   14.3967 H   0  0  0  0  0  0  0  0  0  0  0  0
   12.4274    0.1383   14.7575 H   0  0  0  0  0  0  0  0  0  0  0  0
   16.1488   -5.3230   22.0706 H   0  0  0  0  0  0  0  0  0  0  0  0
   14.6541   -5.6584   20.3561 H   0  0  0  0  0  0  0  0  0  0  0  0
   13.8000   -5.2111   21.8143 H   0  0  0  0  0  0  0  0  0  0  0  0
   12.9247   -4.1968   20.0058 H   0  0  0  0  0  0  0  0  0  0  0  0
  1  2  1  0
  2  3  1  0
  3  4  1  0
  4  5  1  0
  5  6  1  0
  6  7  1  0
  7  8  1  0
  7  9  2  0
  7 10  2  0
 10 11  1  0
 11 12  1  0
 12 13  2  0
 12 14  2  0
 12 15  1  0
 15 16  1  0
 16 17  2  0
 17 18  1  0
 18 19  2  0
 19 20  1  0
 20 21  2  0
 21 22  1  0
  6 23  1  0
 23 24  1  0
 24 25  1  0
 23  2  1  0
 21 16  1  0
  1 26  1  0
  1 27  1  0
  1 28  1  0
  2 29  1  0
  3 30  1  0
  3 31  1  0
  4 32  1  0
  4 33  1  0
  5 34  1  0
  5 35  1  0
  8 36  1  0
  8 37  1  0
  8 38  1  0
 10 39  1  0
 11 40  1  0
 11 41  1  0
 15 42  1  0
 17 43  1  0
 18 44  1  0
 19 45  1  0
 20 46  1  0
 23 47  1  0
 24 48  1  0
 24 49  1  0
 25 50  1  0
M  END
>  <Energy>  (206) 
3.5878374278508853

>  <compound_id>  (206) 
1555

>  <target_id>  (206) 
1

>  <reference_id>  (206) 
60

>  <inspiration_ids>  (206) 
[10, 60]

>  <energy_score>  (206) 
-51.8758057715921

>  <distance_score>  (206) 
1.37282733118724

>  <path>  (206) 
/opt/xchem-fragalysis-2/maxwin/BulkDock/SCRATCH/505732/C1555-P60/C1555-P60.minimised.mol

>  <scratch_subdir>  (206) 
/opt/xchem-fragalysis-2/maxwin/BulkDock/SCRATCH/505732/C1555-P60

>  <fragmenstein_runtime>  (206) 
5.54029393196106

>  <fragmenstein_outcome>  (206) 
too moved

>  <fragmenstein_mode>  (206) 
expansion

>  <fragmenstein_error>  (206) 


$$$$
C1557-P10
     RDKit          3D

 31 32  0  0  0  0  0  0  0  0999 V2000
   17.5647   -2.5289   16.2921 C   0  0  0  0  0  0  0  0  0  0  0  0
   16.6074   -3.6998   16.2558 C   0  0  0  0  0  0  0  0  0  0  0  0
   15.5683   -3.8804   17.7056 S   0  0  0  0  0  0  0  0  0  0  0  0
   16.4312   -3.8711   18.8705 O   0  0  0  0  0  0  0  0  0  0  0  0
   14.7091   -5.0232   17.4643 O   0  0  0  0  0  0  0  0  0  0  0  0
   14.6473   -2.4733   17.7342 N   0  0  0  0  0  0  0  0  0  0  0  0
   15.2233   -1.2244   18.2787 C   0  0  0  0  0  0  0  0  0  0  0  0
   14.7021   -0.1402   17.3339 C   0  0  0  0  0  0  0  0  0  0  0  0
   13.6801   -0.8747   16.5266 C   0  0  0  0  0  0  0  0  0  0  0  0
   13.6678   -2.1954   16.7403 C   0  0  0  0  0  0  0  0  0  0  0  0
   12.7228   -3.1456   16.1067 C   0  0  0  0  0  0  0  0  0  0  0  0
   11.9962   -2.5173   14.9049 C   0  0  0  0  0  0  0  0  0  0  0  0
   11.5846   -1.0651   15.1514 C   0  0  0  0  0  0  0  0  0  0  0  0
   12.7706   -0.1855   15.5636 C   0  0  0  0  0  0  0  0  0  0  0  0
   18.2753   -2.6042   15.4625 H   0  0  0  0  0  0  0  0  0  0  0  0
   17.0389   -1.5794   16.1754 H   0  0  0  0  0  0  0  0  0  0  0  0
   18.1365   -2.5007   17.2242 H   0  0  0  0  0  0  0  0  0  0  0  0
   17.1753   -4.6343   16.1850 H   0  0  0  0  0  0  0  0  0  0  0  0
   15.9540   -3.6446   15.3805 H   0  0  0  0  0  0  0  0  0  0  0  0
   14.8386   -1.0720   19.2938 H   0  0  0  0  0  0  0  0  0  0  0  0
   16.3136   -1.2204   18.3295 H   0  0  0  0  0  0  0  0  0  0  0  0
   15.4983    0.2439   16.6883 H   0  0  0  0  0  0  0  0  0  0  0  0
   14.2721    0.6956   17.8927 H   0  0  0  0  0  0  0  0  0  0  0  0
   13.2364   -4.0467   15.7879 H   0  0  0  0  0  0  0  0  0  0  0  0
   11.9890   -3.4655   16.8480 H   0  0  0  0  0  0  0  0  0  0  0  0
   11.1161   -3.1202   14.6547 H   0  0  0  0  0  0  0  0  0  0  0  0
   12.6531   -2.5382   14.0271 H   0  0  0  0  0  0  0  0  0  0  0  0
   11.1250   -0.6454   14.2506 H   0  0  0  0  0  0  0  0  0  0  0  0
   10.8179   -1.0376   15.9328 H   0  0  0  0  0  0  0  0  0  0  0  0
   12.3882    0.7438   16.0000 H   0  0  0  0  0  0  0  0  0  0  0  0
   13.3489    0.0908   14.6737 H   0  0  0  0  0  0  0  0  0  0  0  0
  1  2  1  0
  2  3  1  0
  3  4  2  0
  3  5  2  0
  3  6  1  0
  6  7  1  0
  7  8  1  0
  8  9  1  0
  9 10  2  0
 10 11  1  0
 11 12  1  0
 12 13  1  0
 13 14  1  0
 10  6  1  0
 14  9  1  0
  1 15  1  0
  1 16  1  0
  1 17  1  0
  2 18  1  0
  2 19  1  0
  7 20  1  0
  7 21  1  0
  8 22  1  0
  8 23  1  0
 11 24  1  0
 11 25  1  0
 12 26  1  0
 12 27  1  0
 13 28  1  0
 13 29  1  0
 14 30  1  0
 14 31  1  0
M  END
>  <Energy>  (207) 
-13.938920991697479

>  <compound_id>  (207) 
1557

>  <target_id>  (207) 
1

>  <reference_id>  (207) 
10

>  <inspiration_ids>  (207) 
[10, 63]

>  <energy_score>  (207) 
-49.46381136222078

>  <distance_score>  (207) 
1.0611529617239819

>  <path>  (207) 
/opt/xchem-fragalysis-2/maxwin/BulkDock/SCRATCH/505732/C1557-P10/C1557-P10.minimised.mol

>  <scratch_subdir>  (207) 
/opt/xchem-fragalysis-2/maxwin/BulkDock/SCRATCH/505732/C1557-P10

>  <fragmenstein_runtime>  (207) 
11.230468273162842

>  <fragmenstein_outcome>  (207) 
too moved

>  <fragmenstein_mode>  (207) 
expansion

>  <fragmenstein_error>  (207) 


$$$$
C1557-P63
     RDKit          3D

 31 32  0  0  0  0  0  0  0  0999 V2000
   17.4605   -2.3805   16.3475 C   0  0  0  0  0  0  0  0  0  0  0  0
   16.5522   -3.5902   16.3516 C   0  0  0  0  0  0  0  0  0  0  0  0
   15.5456   -3.7739   17.8250 S   0  0  0  0  0  0  0  0  0  0  0  0
   16.4302   -3.7281   18.9720 O   0  0  0  0  0  0  0  0  0  0  0  0
   14.7099   -4.9400   17.6217 O   0  0  0  0  0  0  0  0  0  0  0  0
   14.5804   -2.4010   17.8519 N   0  0  0  0  0  0  0  0  0  0  0  0
   15.1053   -1.1373   18.4128 C   0  0  0  0  0  0  0  0  0  0  0  0
   14.4883   -0.0571   17.5236 C   0  0  0  0  0  0  0  0  0  0  0  0
   13.5288   -0.8326   16.6787 C   0  0  0  0  0  0  0  0  0  0  0  0
   13.5890   -2.1566   16.8612 C   0  0  0  0  0  0  0  0  0  0  0  0
   12.7182   -3.1453   16.1785 C   0  0  0  0  0  0  0  0  0  0  0  0
   11.9934   -2.5274   14.9698 C   0  0  0  0  0  0  0  0  0  0  0  0
   11.4858   -1.1107   15.2441 C   0  0  0  0  0  0  0  0  0  0  0  0
   12.6036   -0.1723   15.7109 C   0  0  0  0  0  0  0  0  0  0  0  0
   18.1482   -2.4335   15.4973 H   0  0  0  0  0  0  0  0  0  0  0  0
   16.8903   -1.4547   16.2422 H   0  0  0  0  0  0  0  0  0  0  0  0
   18.0576   -2.3197   17.2620 H   0  0  0  0  0  0  0  0  0  0  0  0
   17.1553   -4.5030   16.2920 H   0  0  0  0  0  0  0  0  0  0  0  0
   15.8823   -3.5800   15.4874 H   0  0  0  0  0  0  0  0  0  0  0  0
   14.7581   -1.0348   19.4472 H   0  0  0  0  0  0  0  0  0  0  0  0
   16.1954   -1.0748   18.4133 H   0  0  0  0  0  0  0  0  0  0  0  0
   15.2482    0.4276   16.9022 H   0  0  0  0  0  0  0  0  0  0  0  0
   13.9846    0.7061   18.1244 H   0  0  0  0  0  0  0  0  0  0  0  0
   13.2928   -4.0065   15.8482 H   0  0  0  0  0  0  0  0  0  0  0  0
   11.9802   -3.5228   16.8912 H   0  0  0  0  0  0  0  0  0  0  0  0
   11.1598   -3.1743   14.6741 H   0  0  0  0  0  0  0  0  0  0  0  0
   12.6798   -2.4850   14.1152 H   0  0  0  0  0  0  0  0  0  0  0  0
   11.0232   -0.6937   14.3437 H   0  0  0  0  0  0  0  0  0  0  0  0
   10.7006   -1.1530   16.0066 H   0  0  0  0  0  0  0  0  0  0  0  0
   12.1540    0.7196   16.1606 H   0  0  0  0  0  0  0  0  0  0  0  0
   13.1862    0.1633   14.8444 H   0  0  0  0  0  0  0  0  0  0  0  0
  1  2  1  0
  2  3  1  0
  3  4  2  0
  3  5  2  0
  3  6  1  0
  6  7  1  0
  7  8  1  0
  8  9  1  0
  9 10  2  0
 10 11  1  0
 11 12  1  0
 12 13  1  0
 13 14  1  0
 10  6  1  0
 14  9  1  0
  1 15  1  0
  1 16  1  0
  1 17  1  0
  2 18  1  0
  2 19  1  0
  7 20  1  0
  7 21  1  0
  8 22  1  0
  8 23  1  0
 11 24  1  0
 11 25  1  0
 12 26  1  0
 12 27  1  0
 13 28  1  0
 13 29  1  0
 14 30  1  0
 14 31  1  0
M  END
>  <Energy>  (208) 
-14.681446779187828

>  <compound_id>  (208) 
1557

>  <target_id>  (208) 
1

>  <reference_id>  (208) 
63

>  <inspiration_ids>  (208) 
[10, 63]

>  <energy_score>  (208) 
-50.20633714971156

>  <distance_score>  (208) 
1.0745812372604715

>  <path>  (208) 
/opt/xchem-fragalysis-2/maxwin/BulkDock/SCRATCH/505732/C1557-P63/C1557-P63.minimised.mol

>  <scratch_subdir>  (208) 
/opt/xchem-fragalysis-2/maxwin/BulkDock/SCRATCH/505732/C1557-P63

>  <fragmenstein_runtime>  (208) 
11.072748899459839

>  <fragmenstein_outcome>  (208) 
too moved

>  <fragmenstein_mode>  (208) 
expansion

>  <fragmenstein_error>  (208) 


$$$$
C1558-P10
     RDKit          3D

 41 42  0  0  0  0  0  0  0  0999 V2000
   18.8480   -2.6429   16.0447 C   0  0  0  0  0  0  0  0  0  0  0  0
   18.1220   -3.9764   16.0037 C   0  0  0  0  0  0  0  0  0  0  0  0
   16.4442   -3.8174   16.5419 S   0  0  0  0  0  0  0  0  0  0  0  0
   16.5501   -3.2302   17.8571 O   0  0  0  0  0  0  0  0  0  0  0  0
   15.7935   -5.0921   16.3365 O   0  0  0  0  0  0  0  0  0  0  0  0
   15.9056   -2.7779   15.3061 N   0  0  0  0  0  0  0  0  0  0  0  0
   14.9134   -1.6756   15.3941 C   0  0  0  0  0  0  0  0  0  0  0  0
   15.5313   -0.4248   16.0034 C   0  0  0  0  0  0  0  0  0  0  0  0
   15.2825   -0.5427   17.5007 C   0  0  0  0  0  0  0  0  0  0  0  0
   14.2283   -1.5923   17.5516 C   0  0  0  0  0  0  0  0  0  0  0  0
   13.8350   -1.9895   16.3395 C   0  0  0  0  0  0  0  0  0  0  0  0
   12.7965   -2.9577   16.1562 C   0  0  0  0  0  0  0  0  0  0  0  0
   11.8150   -2.8363   15.0244 C   0  0  0  0  0  0  0  0  0  0  0  0
   11.4912   -1.4586   14.7606 N   0  0  0  0  0  0  0  0  0  0  0  0
   10.4175   -0.5403   15.3913 C   0  0  0  0  0  0  0  0  0  0  0  0
   10.6331    0.8306   14.7924 C   0  0  0  0  0  0  0  0  0  0  0  0
    9.5793   -0.7792   16.1668 O   0  0  0  0  0  0  0  0  0  0  0  0
   12.7011   -3.8663   17.1422 C   0  0  0  0  0  0  0  0  0  0  0  0
   13.5158   -3.8098   18.4215 C   0  0  0  0  0  0  0  0  0  0  0  0
   14.0655   -2.4490   18.6281 N   0  0  0  0  0  0  0  0  0  0  0  0
   19.8981   -2.7841   15.7694 H   0  0  0  0  0  0  0  0  0  0  0  0
   18.8216   -2.1958   17.0432 H   0  0  0  0  0  0  0  0  0  0  0  0
   18.4183   -1.9251   15.3404 H   0  0  0  0  0  0  0  0  0  0  0  0
   18.6068   -4.6942   16.6732 H   0  0  0  0  0  0  0  0  0  0  0  0
   18.1214   -4.3979   14.9939 H   0  0  0  0  0  0  0  0  0  0  0  0
   15.7215   -3.3644   14.4868 H   0  0  0  0  0  0  0  0  0  0  0  0
   14.5410   -1.4597   14.3872 H   0  0  0  0  0  0  0  0  0  0  0  0
   16.5956   -0.3076   15.7747 H   0  0  0  0  0  0  0  0  0  0  0  0
   15.0187    0.4689   15.6219 H   0  0  0  0  0  0  0  0  0  0  0  0
   14.9238    0.4035   17.9188 H   0  0  0  0  0  0  0  0  0  0  0  0
   16.1940   -0.8215   18.0354 H   0  0  0  0  0  0  0  0  0  0  0  0
   12.2145   -3.2296   14.0914 H   0  0  0  0  0  0  0  0  0  0  0  0
   10.8817   -3.3576   15.2535 H   0  0  0  0  0  0  0  0  0  0  0  0
   12.1115   -0.9071   14.1871 H   0  0  0  0  0  0  0  0  0  0  0  0
    9.9424    1.5403   15.2566 H   0  0  0  0  0  0  0  0  0  0  0  0
   10.4435    0.8017   13.7161 H   0  0  0  0  0  0  0  0  0  0  0  0
   11.6548    1.1691   14.9865 H   0  0  0  0  0  0  0  0  0  0  0  0
   11.9252   -4.6127   17.0819 H   0  0  0  0  0  0  0  0  0  0  0  0
   14.3138   -4.5553   18.3917 H   0  0  0  0  0  0  0  0  0  0  0  0
   12.9099   -4.0586   19.2941 H   0  0  0  0  0  0  0  0  0  0  0  0
   14.9068   -2.4861   19.2071 H   0  0  0  0  0  0  0  0  0  0  0  0
  1  2  1  0
  2  3  1  0
  3  4  2  0
  3  5  2  0
  3  6  1  0
  6  7  1  0
  7  8  1  0
  8  9  1  0
  9 10  1  0
 10 11  2  0
 11 12  1  0
 12 13  1  0
 13 14  1  0
 14 15  1  0
 15 16  1  0
 15 17  2  0
 12 18  2  0
 18 19  1  0
 19 20  1  0
 11  7  1  0
 20 10  1  0
  1 21  1  0
  1 22  1  0
  1 23  1  0
  2 24  1  0
  2 25  1  0
  6 26  1  0
  7 27  1  0
  8 28  1  0
  8 29  1  0
  9 30  1  0
  9 31  1  0
 13 32  1  0
 13 33  1  0
 14 34  1  0
 16 35  1  0
 16 36  1  0
 16 37  1  0
 18 38  1  0
 19 39  1  0
 19 40  1  0
 20 41  1  0
M  END
>  <Energy>  (209) 
-43.292699562211737

>  <compound_id>  (209) 
1558

>  <target_id>  (209) 
1

>  <reference_id>  (209) 
10

>  <inspiration_ids>  (209) 
[10, 66]

>  <energy_score>  (209) 
3.7496921545621262

>  <distance_score>  (209) 
2.278643419590645

>  <path>  (209) 
/opt/xchem-fragalysis-2/maxwin/BulkDock/SCRATCH/505732/C1558-P10/C1558-P10.minimised.mol

>  <scratch_subdir>  (209) 
/opt/xchem-fragalysis-2/maxwin/BulkDock/SCRATCH/505732/C1558-P10

>  <fragmenstein_runtime>  (209) 
2.510920286178589

>  <fragmenstein_outcome>  (209) 
too moved

>  <fragmenstein_mode>  (209) 
expansion

>  <fragmenstein_error>  (209) 


$$$$
C1558-P66
     RDKit          3D

 41 42  0  0  0  0  0  0  0  0999 V2000
   19.4120   -3.1788   16.6611 C   0  0  0  0  0  0  0  0  0  0  0  0
   18.5714   -4.4147   16.3854 C   0  0  0  0  0  0  0  0  0  0  0  0
   16.8754   -4.1790   16.8243 S   0  0  0  0  0  0  0  0  0  0  0  0
   16.8281   -3.9982   18.2592 O   0  0  0  0  0  0  0  0  0  0  0  0
   16.0864   -5.1937   16.1661 O   0  0  0  0  0  0  0  0  0  0  0  0
   16.6588   -2.6862   16.0756 N   0  0  0  0  0  0  0  0  0  0  0  0
   15.3158   -2.2409   15.6708 C   0  0  0  0  0  0  0  0  0  0  0  0
   15.4461   -0.9958   14.7828 C   0  0  0  0  0  0  0  0  0  0  0  0
   15.4733    0.2189   15.7263 C   0  0  0  0  0  0  0  0  0  0  0  0
   14.9876   -0.3523   17.0084 C   0  0  0  0  0  0  0  0  0  0  0  0
   14.7413   -1.6606   16.8963 C   0  0  0  0  0  0  0  0  0  0  0  0
   14.2768   -2.4564   17.9822 C   0  0  0  0  0  0  0  0  0  0  0  0
   13.5324   -3.7294   17.7052 C   0  0  0  0  0  0  0  0  0  0  0  0
   12.4917   -3.7291   16.6785 N   0  0  0  0  0  0  0  0  0  0  0  0
   12.1040   -2.6422   15.6309 C   0  0  0  0  0  0  0  0  0  0  0  0
   10.9546   -3.1287   14.8197 C   0  0  0  0  0  0  0  0  0  0  0  0
   12.6077   -1.6171   15.3811 O   0  0  0  0  0  0  0  0  0  0  0  0
   14.6587   -2.0029   19.2026 C   0  0  0  0  0  0  0  0  0  0  0  0
   15.3426   -0.6609   19.4122 C   0  0  0  0  0  0  0  0  0  0  0  0
   15.0917    0.2320   18.2551 N   0  0  0  0  0  0  0  0  0  0  0  0
   20.4727   -3.4214   16.5378 H   0  0  0  0  0  0  0  0  0  0  0  0
   19.2687   -2.8090   17.6813 H   0  0  0  0  0  0  0  0  0  0  0  0
   19.1900   -2.3658   15.9634 H   0  0  0  0  0  0  0  0  0  0  0  0
   18.9359   -5.2649   16.9706 H   0  0  0  0  0  0  0  0  0  0  0  0
   18.6148   -4.6818   15.3251 H   0  0  0  0  0  0  0  0  0  0  0  0
   17.0847   -1.9683   16.6671 H   0  0  0  0  0  0  0  0  0  0  0  0
   14.7667   -3.0315   15.1762 H   0  0  0  0  0  0  0  0  0  0  0  0
   16.3397   -1.0216   14.1479 H   0  0  0  0  0  0  0  0  0  0  0  0
   14.5874   -0.9104   14.1059 H   0  0  0  0  0  0  0  0  0  0  0  0
   14.8265    1.0219   15.3609 H   0  0  0  0  0  0  0  0  0  0  0  0
   16.4935    0.6031   15.8324 H   0  0  0  0  0  0  0  0  0  0  0  0
   14.2111   -4.5235   17.4122 H   0  0  0  0  0  0  0  0  0  0  0  0
   13.0641   -4.1030   18.6213 H   0  0  0  0  0  0  0  0  0  0  0  0
   11.7887   -4.4584   16.6863 H   0  0  0  0  0  0  0  0  0  0  0  0
   11.2775   -3.1849   13.7769 H   0  0  0  0  0  0  0  0  0  0  0  0
   10.1302   -2.4214   14.9252 H   0  0  0  0  0  0  0  0  0  0  0  0
   10.6221   -4.1102   15.1226 H   0  0  0  0  0  0  0  0  0  0  0  0
   14.4388   -2.5776   20.0985 H   0  0  0  0  0  0  0  0  0  0  0  0
   14.9541   -0.1805   20.3155 H   0  0  0  0  0  0  0  0  0  0  0  0
   16.4199   -0.8121   19.5425 H   0  0  0  0  0  0  0  0  0  0  0  0
   15.6445    1.0837   18.2672 H   0  0  0  0  0  0  0  0  0  0  0  0
  1  2  1  0
  2  3  1  0
  3  4  2  0
  3  5  2  0
  3  6  1  0
  6  7  1  0
  7  8  1  0
  8  9  1  0
  9 10  1  0
 10 11  2  0
 11 12  1  0
 12 13  1  0
 13 14  1  0
 14 15  1  0
 15 16  1  0
 15 17  2  0
 12 18  2  0
 18 19  1  0
 19 20  1  0
 11  7  1  0
 20 10  1  0
  1 21  1  0
  1 22  1  0
  1 23  1  0
  2 24  1  0
  2 25  1  0
  6 26  1  0
  7 27  1  0
  8 28  1  0
  8 29  1  0
  9 30  1  0
  9 31  1  0
 13 32  1  0
 13 33  1  0
 14 34  1  0
 16 35  1  0
 16 36  1  0
 16 37  1  0
 18 38  1  0
 19 39  1  0
 19 40  1  0
 20 41  1  0
M  END
>  <Energy>  (210) 
-49.576119636937001

>  <compound_id>  (210) 
1558

>  <target_id>  (210) 
1

>  <reference_id>  (210) 
66

>  <inspiration_ids>  (210) 
[10, 66]

>  <energy_score>  (210) 
-2.533727920163585

>  <distance_score>  (210) 
2.699393799089307

>  <path>  (210) 
/opt/xchem-fragalysis-2/maxwin/BulkDock/SCRATCH/505732/C1558-P66/C1558-P66.minimised.mol

>  <scratch_subdir>  (210) 
/opt/xchem-fragalysis-2/maxwin/BulkDock/SCRATCH/505732/C1558-P66

>  <fragmenstein_runtime>  (210) 
2.55483341217041

>  <fragmenstein_outcome>  (210) 
too moved

>  <fragmenstein_mode>  (210) 
expansion

>  <fragmenstein_error>  (210) 


$$$$
C1560-P10
     RDKit          3D

 42 43  0  0  0  0  0  0  0  0999 V2000
   18.0560   -2.6558   16.7236 C   0  0  0  0  0  0  0  0  0  0  0  0
   17.0599   -3.7701   16.4625 C   0  0  0  0  0  0  0  0  0  0  0  0
   15.8146   -3.8936   17.7373 S   0  0  0  0  0  0  0  0  0  0  0  0
   16.4979   -3.8850   19.0128 O   0  0  0  0  0  0  0  0  0  0  0  0
   14.9146   -4.9709   17.3993 O   0  0  0  0  0  0  0  0  0  0  0  0
   15.0461   -2.4143   17.6442 N   0  0  0  0  0  0  0  0  0  0  0  0
   13.8480   -2.0232   16.8574 C   0  0  0  0  0  0  0  0  0  0  0  0
   13.0602   -3.1806   16.2667 C   0  0  0  0  0  0  0  0  0  0  0  0
   11.8301   -2.7599   15.4701 C   0  0  0  0  0  0  0  0  0  0  0  0
   12.0920   -1.6144   14.5159 C   0  0  0  0  0  0  0  0  0  0  0  0
   12.7421   -0.4467   15.2356 C   0  0  0  0  0  0  0  0  0  0  0  0
   14.0922   -0.8303   15.8895 C   0  0  0  0  0  0  0  0  0  0  0  0
   15.1783   -1.1128   14.8458 C   0  0  0  0  0  0  0  0  0  0  0  0
   15.5289    0.0698   14.0551 N   0  0  0  0  0  0  0  0  0  0  0  0
   15.8767    1.1967   14.9217 C   0  0  0  0  0  0  0  0  0  0  0  0
   16.1347    2.4270   14.0119 C   0  0  0  0  0  0  0  0  0  0  0  0
   15.0393    2.6748   13.1188 O   0  0  0  0  0  0  0  0  0  0  0  0
   14.7617    1.4553   15.8345 N   0  0  0  0  0  0  0  0  0  0  0  0
   14.5903    0.2795   16.6910 O   0  0  0  0  0  0  0  0  0  0  0  0
   18.7357   -2.5501   15.8726 H   0  0  0  0  0  0  0  0  0  0  0  0
   18.6618   -2.8820   17.6075 H   0  0  0  0  0  0  0  0  0  0  0  0
   17.5751   -1.6911   16.9034 H   0  0  0  0  0  0  0  0  0  0  0  0
   16.5446   -3.6471   15.5065 H   0  0  0  0  0  0  0  0  0  0  0  0
   17.5768   -4.7351   16.4377 H   0  0  0  0  0  0  0  0  0  0  0  0
   15.2710   -1.8116   18.4393 H   0  0  0  0  0  0  0  0  0  0  0  0
   13.2001   -1.5899   17.6111 H   0  0  0  0  0  0  0  0  0  0  0  0
   13.7301   -3.7458   15.6321 H   0  0  0  0  0  0  0  0  0  0  0  0
   12.7282   -3.8586   17.0616 H   0  0  0  0  0  0  0  0  0  0  0  0
   11.0519   -2.4363   16.1605 H   0  0  0  0  0  0  0  0  0  0  0  0
   11.4161   -3.6126   14.9248 H   0  0  0  0  0  0  0  0  0  0  0  0
   12.7034   -1.9502   13.6721 H   0  0  0  0  0  0  0  0  0  0  0  0
   11.1449   -1.2672   14.1016 H   0  0  0  0  0  0  0  0  0  0  0  0
   12.8429    0.3837   14.5283 H   0  0  0  0  0  0  0  0  0  0  0  0
   12.0628   -0.0666   16.0087 H   0  0  0  0  0  0  0  0  0  0  0  0
   14.8945   -1.9251   14.1702 H   0  0  0  0  0  0  0  0  0  0  0  0
   16.0977   -1.4285   15.3346 H   0  0  0  0  0  0  0  0  0  0  0  0
   14.7271    0.3910   13.5077 H   0  0  0  0  0  0  0  0  0  0  0  0
   16.7911    0.9843   15.4892 H   0  0  0  0  0  0  0  0  0  0  0  0
   16.2955    3.3267   14.6159 H   0  0  0  0  0  0  0  0  0  0  0  0
   17.0293    2.2575   13.4019 H   0  0  0  0  0  0  0  0  0  0  0  0
   15.3095    3.4102   12.5443 H   0  0  0  0  0  0  0  0  0  0  0  0
   15.0403    2.1698   16.5060 H   0  0  0  0  0  0  0  0  0  0  0  0
  1  2  1  0
  2  3  1  0
  3  4  2  0
  3  5  2  0
  3  6  1  0
  6  7  1  0
  7  8  1  0
  8  9  1  0
  9 10  1  0
 10 11  1  0
 11 12  1  0
 12 13  1  0
 13 14  1  0
 14 15  1  0
 15 16  1  0
 16 17  1  0
 15 18  1  0
 18 19  1  0
 12  7  1  0
 19 12  1  0
  1 20  1  0
  1 21  1  0
  1 22  1  0
  2 23  1  0
  2 24  1  0
  6 25  1  0
  7 26  1  0
  8 27  1  0
  8 28  1  0
  9 29  1  0
  9 30  1  0
 10 31  1  0
 10 32  1  0
 11 33  1  0
 11 34  1  0
 13 35  1  0
 13 36  1  0
 14 37  1  0
 15 38  1  0
 16 39  1  0
 16 40  1  0
 17 41  1  0
 18 42  1  0
M  END
>  <Energy>  (211) 
10.625979097589347

>  <compound_id>  (211) 
1560

>  <target_id>  (211) 
1

>  <reference_id>  (211) 
10

>  <inspiration_ids>  (211) 
[10, 76]

>  <energy_score>  (211) 
-70.66926857884175

>  <distance_score>  (211) 
0.9063994415604131

>  <path>  (211) 
/opt/xchem-fragalysis-2/maxwin/BulkDock/SCRATCH/505732/C1560-P10/C1560-P10.minimised.mol

>  <scratch_subdir>  (211) 
/opt/xchem-fragalysis-2/maxwin/BulkDock/SCRATCH/505732/C1560-P10

>  <fragmenstein_runtime>  (211) 
4.204272031784058

>  <fragmenstein_outcome>  (211) 
acceptable

>  <fragmenstein_mode>  (211) 
expansion

>  <fragmenstein_error>  (211) 


$$$$
C1560-P76
     RDKit          3D

 42 43  0  0  0  0  0  0  0  0999 V2000
   18.4743   -2.4062   17.2905 C   0  0  0  0  0  0  0  0  0  0  0  0
   17.8972   -3.6821   16.7124 C   0  0  0  0  0  0  0  0  0  0  0  0
   16.3703   -4.1806   17.4833 S   0  0  0  0  0  0  0  0  0  0  0  0
   16.6467   -4.4780   18.8714 O   0  0  0  0  0  0  0  0  0  0  0  0
   15.7400   -5.1445   16.6179 O   0  0  0  0  0  0  0  0  0  0  0  0
   15.5001   -2.7696   17.5293 N   0  0  0  0  0  0  0  0  0  0  0  0
   14.2943   -2.4219   16.7483 C   0  0  0  0  0  0  0  0  0  0  0  0
   13.3234   -3.5556   16.4758 C   0  0  0  0  0  0  0  0  0  0  0  0
   12.0536   -3.0729   15.7949 C   0  0  0  0  0  0  0  0  0  0  0  0
   12.3154   -2.3013   14.5247 C   0  0  0  0  0  0  0  0  0  0  0  0
   13.2846   -1.1525   14.7127 C   0  0  0  0  0  0  0  0  0  0  0  0
   14.5223   -1.3551   15.6290 C   0  0  0  0  0  0  0  0  0  0  0  0
   15.7699   -1.5408   14.7541 C   0  0  0  0  0  0  0  0  0  0  0  0
   16.1140   -0.3505   13.9433 N   0  0  0  0  0  0  0  0  0  0  0  0
   16.1759    0.8686   14.7549 C   0  0  0  0  0  0  0  0  0  0  0  0
   16.3686    2.0957   13.8218 C   0  0  0  0  0  0  0  0  0  0  0  0
   15.3378    2.1931   12.8306 O   0  0  0  0  0  0  0  0  0  0  0  0
   14.9225    1.0027   15.4808 N   0  0  0  0  0  0  0  0  0  0  0  0
   14.8245   -0.1304   16.3880 O   0  0  0  0  0  0  0  0  0  0  0  0
   17.8018   -1.5503   17.1982 H   0  0  0  0  0  0  0  0  0  0  0  0
   19.4097   -2.1537   16.7815 H   0  0  0  0  0  0  0  0  0  0  0  0
   18.6958   -2.5311   18.3557 H   0  0  0  0  0  0  0  0  0  0  0  0
   17.7176   -3.5900   15.6384 H   0  0  0  0  0  0  0  0  0  0  0  0
   18.5996   -4.5100   16.8568 H   0  0  0  0  0  0  0  0  0  0  0  0
   15.5350   -2.3614   18.4674 H   0  0  0  0  0  0  0  0  0  0  0  0
   13.7700   -1.8875   17.5408 H   0  0  0  0  0  0  0  0  0  0  0  0
   13.7821   -4.3204   15.8701 H   0  0  0  0  0  0  0  0  0  0  0  0
   13.0558   -4.0498   17.4189 H   0  0  0  0  0  0  0  0  0  0  0  0
   11.5151   -2.4130   16.4685 H   0  0  0  0  0  0  0  0  0  0  0  0
   11.3866   -3.9144   15.5934 H   0  0  0  0  0  0  0  0  0  0  0  0
   12.6640   -2.9535   13.7250 H   0  0  0  0  0  0  0  0  0  0  0  0
   11.3662   -1.8948   14.1634 H   0  0  0  0  0  0  0  0  0  0  0  0
   13.5656   -0.8224   13.7069 H   0  0  0  0  0  0  0  0  0  0  0  0
   12.7316   -0.3129   15.0937 H   0  0  0  0  0  0  0  0  0  0  0  0
   15.6567   -2.4065   14.0931 H   0  0  0  0  0  0  0  0  0  0  0  0
   16.6438   -1.7237   15.3721 H   0  0  0  0  0  0  0  0  0  0  0  0
   15.3851   -0.1659   13.2512 H   0  0  0  0  0  0  0  0  0  0  0  0
   17.0238    0.8216   15.4492 H   0  0  0  0  0  0  0  0  0  0  0  0
   16.3679    3.0224   14.4067 H   0  0  0  0  0  0  0  0  0  0  0  0
   17.3288    2.0204   13.2992 H   0  0  0  0  0  0  0  0  0  0  0  0
   15.5224    2.9912   12.3092 H   0  0  0  0  0  0  0  0  0  0  0  0
   14.9688    1.7996   16.1128 H   0  0  0  0  0  0  0  0  0  0  0  0
  1  2  1  0
  2  3  1  0
  3  4  2  0
  3  5  2  0
  3  6  1  0
  6  7  1  0
  7  8  1  0
  8  9  1  0
  9 10  1  0
 10 11  1  0
 11 12  1  0
 12 13  1  0
 13 14  1  0
 14 15  1  0
 15 16  1  0
 16 17  1  0
 15 18  1  0
 18 19  1  0
 12  7  1  0
 19 12  1  0
  1 20  1  0
  1 21  1  0
  1 22  1  0
  2 23  1  0
  2 24  1  0
  6 25  1  0
  7 26  1  0
  8 27  1  0
  8 28  1  0
  9 29  1  0
  9 30  1  0
 10 31  1  0
 10 32  1  0
 11 33  1  0
 11 34  1  0
 13 35  1  0
 13 36  1  0
 14 37  1  0
 15 38  1  0
 16 39  1  0
 16 40  1  0
 17 41  1  0
 18 42  1  0
M  END
>  <Energy>  (212) 
22.469547561164678

>  <compound_id>  (212) 
1560

>  <target_id>  (212) 
1

>  <reference_id>  (212) 
76

>  <inspiration_ids>  (212) 
[10, 76]

>  <energy_score>  (212) 
-58.825700115266045

>  <distance_score>  (212) 
1.1743511520296486

>  <path>  (212) 
/opt/xchem-fragalysis-2/maxwin/BulkDock/SCRATCH/505732/C1560-P76/C1560-P76.minimised.mol

>  <scratch_subdir>  (212) 
/opt/xchem-fragalysis-2/maxwin/BulkDock/SCRATCH/505732/C1560-P76

>  <fragmenstein_runtime>  (212) 
4.322641134262085

>  <fragmenstein_outcome>  (212) 
too moved

>  <fragmenstein_mode>  (212) 
expansion

>  <fragmenstein_error>  (212) 


$$$$
C1561-P10
     RDKit          3D

 40 41  0  0  0  0  0  0  0  0999 V2000
   19.1232   -2.0750   16.2040 C   0  0  0  0  0  0  0  0  0  0  0  0
   18.1539   -3.1420   15.7580 C   0  0  0  0  0  0  0  0  0  0  0  0
   16.8666   -3.4504   16.9312 S   0  0  0  0  0  0  0  0  0  0  0  0
   17.3541   -3.1893   18.2711 O   0  0  0  0  0  0  0  0  0  0  0  0
   16.2991   -4.7501   16.6078 O   0  0  0  0  0  0  0  0  0  0  0  0
   15.7169   -2.2377   16.5083 N   0  0  0  0  0  0  0  0  0  0  0  0
   16.0230   -0.7941   16.6981 C   0  0  0  0  0  0  0  0  0  0  0  0
   14.7933    0.1497   16.7738 C   0  0  0  0  0  0  0  0  0  0  0  0
   14.0730    0.5421   15.4632 C   0  0  0  0  0  0  0  0  0  0  0  0
   15.0122    0.9441   14.4808 O   0  0  0  0  0  0  0  0  0  0  0  0
   13.1243   -0.3644   14.8479 N   0  0  0  0  0  0  0  0  0  0  0  0
   13.6654   -1.7015   14.6416 C   0  0  0  0  0  0  0  0  0  0  0  0
   13.5051   -2.4741   15.9112 C   0  0  0  0  0  0  0  0  0  0  0  0
   14.4273   -2.6642   16.8668 C   0  0  0  0  0  0  0  0  0  0  0  0
   14.2000   -3.2793   18.2080 C   0  0  0  0  0  0  0  0  0  0  0  0
   13.2158   -4.3998   18.1223 C   0  0  0  0  0  0  0  0  0  0  0  0
   12.3575   -4.3897   16.8577 C   0  0  0  0  0  0  0  0  0  0  0  0
   12.1764   -3.0894   16.1070 C   0  0  0  0  0  0  0  0  0  0  0  0
   19.8952   -1.9319   15.4408 H   0  0  0  0  0  0  0  0  0  0  0  0
   18.6530   -1.1080   16.3794 H   0  0  0  0  0  0  0  0  0  0  0  0
   19.6294   -2.3666   17.1303 H   0  0  0  0  0  0  0  0  0  0  0  0
   17.6905   -2.8986   14.7971 H   0  0  0  0  0  0  0  0  0  0  0  0
   18.6908   -4.0885   15.6306 H   0  0  0  0  0  0  0  0  0  0  0  0
   16.6649   -0.4664   15.8756 H   0  0  0  0  0  0  0  0  0  0  0  0
   16.5815   -0.6789   17.6347 H   0  0  0  0  0  0  0  0  0  0  0  0
   15.1956    1.0917   17.1759 H   0  0  0  0  0  0  0  0  0  0  0  0
   14.0672   -0.1826   17.5243 H   0  0  0  0  0  0  0  0  0  0  0  0
   13.4861    1.4387   15.7002 H   0  0  0  0  0  0  0  0  0  0  0  0
   15.4087    1.7752   14.7908 H   0  0  0  0  0  0  0  0  0  0  0  0
   12.9119    0.0224   13.9297 H   0  0  0  0  0  0  0  0  0  0  0  0
   13.0916   -2.1856   13.8419 H   0  0  0  0  0  0  0  0  0  0  0  0
   14.6948   -1.6800   14.2660 H   0  0  0  0  0  0  0  0  0  0  0  0
   13.8952   -2.4969   18.8983 H   0  0  0  0  0  0  0  0  0  0  0  0
   15.0833   -3.6809   18.7038 H   0  0  0  0  0  0  0  0  0  0  0  0
   12.6615   -4.4475   19.0559 H   0  0  0  0  0  0  0  0  0  0  0  0
   13.7872   -5.3292   18.1329 H   0  0  0  0  0  0  0  0  0  0  0  0
   12.8469   -5.1035   16.1963 H   0  0  0  0  0  0  0  0  0  0  0  0
   11.3667   -4.7790   17.0285 H   0  0  0  0  0  0  0  0  0  0  0  0
   11.5314   -2.3730   16.6045 H   0  0  0  0  0  0  0  0  0  0  0  0
   11.6953   -3.3197   15.1487 H   0  0  0  0  0  0  0  0  0  0  0  0
  1  2  1  0
  2  3  1  0
  3  4  2  0
  3  5  2  0
  3  6  1  0
  6  7  1  0
  7  8  1  0
  8  9  1  0
  9 10  1  0
  9 11  1  0
 11 12  1  0
 12 13  1  0
 13 14  2  0
 14 15  1  0
 15 16  1  0
 16 17  1  0
 17 18  1  0
 14  6  1  0
 18 13  1  0
  1 19  1  0
  1 20  1  0
  1 21  1  0
  2 22  1  0
  2 23  1  0
  7 24  1  0
  7 25  1  0
  8 26  1  0
  8 27  1  0
  9 28  1  0
 10 29  1  0
 11 30  1  0
 12 31  1  0
 12 32  1  0
 15 33  1  0
 15 34  1  0
 16 35  1  0
 16 36  1  0
 17 37  1  0
 17 38  1  0
 18 39  1  0
 18 40  1  0
M  END
>  <Energy>  (213) 
-38.372062588015829

>  <compound_id>  (213) 
1561

>  <target_id>  (213) 
1

>  <reference_id>  (213) 
10

>  <inspiration_ids>  (213) 
[10, 80]

>  <energy_score>  (213) 
-72.93265062131687

>  <distance_score>  (213) 
1.7481337096705563

>  <path>  (213) 
/opt/xchem-fragalysis-2/maxwin/BulkDock/SCRATCH/505732/C1561-P10/C1561-P10.minimised.mol

>  <scratch_subdir>  (213) 
/opt/xchem-fragalysis-2/maxwin/BulkDock/SCRATCH/505732/C1561-P10

>  <fragmenstein_runtime>  (213) 
7.354487180709839

>  <fragmenstein_outcome>  (213) 
too moved

>  <fragmenstein_mode>  (213) 
expansion

>  <fragmenstein_error>  (213) 


$$$$
C1561-P80
     RDKit          3D

 40 41  0  0  0  0  0  0  0  0999 V2000
   18.6916   -1.9443   15.8947 C   0  0  0  0  0  0  0  0  0  0  0  0
   17.9978   -3.2811   15.8964 C   0  0  0  0  0  0  0  0  0  0  0  0
   16.7064   -3.4495   17.0959 S   0  0  0  0  0  0  0  0  0  0  0  0
   17.2209   -3.1510   18.4160 O   0  0  0  0  0  0  0  0  0  0  0  0
   16.0941   -4.7423   16.8305 O   0  0  0  0  0  0  0  0  0  0  0  0
   15.5964   -2.1990   16.6277 N   0  0  0  0  0  0  0  0  0  0  0  0
   15.8368   -0.7983   17.0880 C   0  0  0  0  0  0  0  0  0  0  0  0
   15.3002    0.2338   16.0728 C   0  0  0  0  0  0  0  0  0  0  0  0
   13.7680    0.3324   15.9091 C   0  0  0  0  0  0  0  0  0  0  0  0
   13.4546    1.6949   15.6745 O   0  0  0  0  0  0  0  0  0  0  0  0
   13.1523   -0.3678   14.7949 N   0  0  0  0  0  0  0  0  0  0  0  0
   13.5950   -1.7537   14.6554 C   0  0  0  0  0  0  0  0  0  0  0  0
   13.3921   -2.4969   15.9322 C   0  0  0  0  0  0  0  0  0  0  0  0
   14.2845   -2.6345   16.9230 C   0  0  0  0  0  0  0  0  0  0  0  0
   13.9665   -3.1496   18.2853 C   0  0  0  0  0  0  0  0  0  0  0  0
   13.1284   -4.3754   18.1652 C   0  0  0  0  0  0  0  0  0  0  0  0
   12.2286   -4.3956   16.9280 C   0  0  0  0  0  0  0  0  0  0  0  0
   12.0618   -3.1178   16.1242 C   0  0  0  0  0  0  0  0  0  0  0  0
   19.5953   -1.9973   15.2780 H   0  0  0  0  0  0  0  0  0  0  0  0
   18.0615   -1.1665   15.4564 H   0  0  0  0  0  0  0  0  0  0  0  0
   18.9929   -1.6369   16.9002 H   0  0  0  0  0  0  0  0  0  0  0  0
   17.5686   -3.4980   14.9129 H   0  0  0  0  0  0  0  0  0  0  0  0
   18.7218   -4.0715   16.1234 H   0  0  0  0  0  0  0  0  0  0  0  0
   16.9036   -0.6180   17.2307 H   0  0  0  0  0  0  0  0  0  0  0  0
   15.3727   -0.6285   18.0680 H   0  0  0  0  0  0  0  0  0  0  0  0
   15.7745    0.0744   15.0957 H   0  0  0  0  0  0  0  0  0  0  0  0
   15.6715    1.2144   16.4025 H   0  0  0  0  0  0  0  0  0  0  0  0
   13.2737    0.0731   16.8520 H   0  0  0  0  0  0  0  0  0  0  0  0
   12.5168    1.6687   15.4174 H   0  0  0  0  0  0  0  0  0  0  0  0
   13.4296    0.1203   13.9443 H   0  0  0  0  0  0  0  0  0  0  0  0
   13.0175   -2.2175   13.8471 H   0  0  0  0  0  0  0  0  0  0  0  0
   14.6350   -1.7989   14.3124 H   0  0  0  0  0  0  0  0  0  0  0  0
   13.4601   -2.3677   18.8326 H   0  0  0  0  0  0  0  0  0  0  0  0
   14.8314   -3.3727   18.9125 H   0  0  0  0  0  0  0  0  0  0  0  0
   12.6008   -4.5589   19.0998 H   0  0  0  0  0  0  0  0  0  0  0  0
   13.8122   -5.2167   18.1083 H   0  0  0  0  0  0  0  0  0  0  0  0
   12.6407   -5.1711   16.2830 H   0  0  0  0  0  0  0  0  0  0  0  0
   11.2375   -4.7247   17.1852 H   0  0  0  0  0  0  0  0  0  0  0  0
   11.4033   -2.3933   16.6002 H   0  0  0  0  0  0  0  0  0  0  0  0
   11.5963   -3.3770   15.1660 H   0  0  0  0  0  0  0  0  0  0  0  0
  1  2  1  0
  2  3  1  0
  3  4  2  0
  3  5  2  0
  3  6  1  0
  6  7  1  0
  7  8  1  0
  8  9  1  0
  9 10  1  0
  9 11  1  0
 11 12  1  0
 12 13  1  0
 13 14  2  0
 14 15  1  0
 15 16  1  0
 16 17  1  0
 17 18  1  0
 14  6  1  0
 18 13  1  0
  1 19  1  0
  1 20  1  0
  1 21  1  0
  2 22  1  0
  2 23  1  0
  7 24  1  0
  7 25  1  0
  8 26  1  0
  8 27  1  0
  9 28  1  0
 10 29  1  0
 11 30  1  0
 12 31  1  0
 12 32  1  0
 15 33  1  0
 15 34  1  0
 16 35  1  0
 16 36  1  0
 17 37  1  0
 17 38  1  0
 18 39  1  0
 18 40  1  0
M  END
>  <Energy>  (214) 
-45.171899980832862

>  <compound_id>  (214) 
1561

>  <target_id>  (214) 
1

>  <reference_id>  (214) 
80

>  <inspiration_ids>  (214) 
[10, 80]

>  <energy_score>  (214) 
-79.73248801413354

>  <distance_score>  (214) 
1.6634594196667567

>  <path>  (214) 
/opt/xchem-fragalysis-2/maxwin/BulkDock/SCRATCH/505732/C1561-P80/C1561-P80.minimised.mol

>  <scratch_subdir>  (214) 
/opt/xchem-fragalysis-2/maxwin/BulkDock/SCRATCH/505732/C1561-P80

>  <fragmenstein_runtime>  (214) 
7.830975532531738

>  <fragmenstein_outcome>  (214) 
too moved

>  <fragmenstein_mode>  (214) 
expansion

>  <fragmenstein_error>  (214) 


$$$$
C1563-P10
     RDKit          3D

 44 45  0  0  0  0  0  0  0  0999 V2000
   18.0656   -2.9236   17.4263 C   0  0  0  0  0  0  0  0  0  0  0  0
   16.9961   -3.8564   16.8977 C   0  0  0  0  0  0  0  0  0  0  0  0
   15.6492   -4.1353   18.0521 S   0  0  0  0  0  0  0  0  0  0  0  0
   16.2328   -4.6532   19.2737 O   0  0  0  0  0  0  0  0  0  0  0  0
   14.6094   -4.8869   17.3867 O   0  0  0  0  0  0  0  0  0  0  0  0
   15.0878   -2.6197   18.4674 N   0  0  0  0  0  0  0  0  0  0  0  0
   14.8318   -1.5527   17.5522 C   0  0  0  0  0  0  0  0  0  0  0  0
   14.9665   -0.2538   18.0550 C   0  0  0  0  0  0  0  0  0  0  0  0
   14.7656    0.8634   17.2349 C   0  0  0  0  0  0  0  0  0  0  0  0
   14.4269    0.6988   15.8959 C   0  0  0  0  0  0  0  0  0  0  0  0
   14.2649   -0.5909   15.4017 C   0  0  0  0  0  0  0  0  0  0  0  0
   13.8384   -0.7855   14.0103 C   0  0  0  0  0  0  0  0  0  0  0  0
   12.6633   -0.9612   13.8465 O   0  0  0  0  0  0  0  0  0  0  0  0
   14.9104   -0.7433   13.0706 N   0  0  0  0  0  0  0  0  0  0  0  0
   14.8975   -0.7934   11.5585 C   0  0  0  0  0  0  0  0  0  0  0  0
   16.1909   -0.7426   10.7336 C   0  0  0  0  0  0  0  0  0  0  0  0
   16.9055   -2.0686   10.9247 C   0  0  0  0  0  0  0  0  0  0  0  0
   18.2409   -2.1651   10.2136 C   0  0  0  0  0  0  0  0  0  0  0  0
   17.9975   -2.5693    8.8633 O   0  0  0  0  0  0  0  0  0  0  0  0
   16.9681   -2.2190   12.4240 C   0  0  0  0  0  0  0  0  0  0  0  0
   15.5063   -2.1329   12.8971 C   0  0  0  0  0  0  0  0  0  0  0  0
   14.4168   -1.7039   16.2313 C   0  0  0  0  0  0  0  0  0  0  0  0
   14.2036   -2.9226   15.7291 F   0  0  0  0  0  0  0  0  0  0  0  0
   17.6802   -1.9160   17.6003 H   0  0  0  0  0  0  0  0  0  0  0  0
   18.4792   -3.2911   18.3707 H   0  0  0  0  0  0  0  0  0  0  0  0
   18.8857   -2.8462   16.7056 H   0  0  0  0  0  0  0  0  0  0  0  0
   17.4292   -4.8436   16.7021 H   0  0  0  0  0  0  0  0  0  0  0  0
   16.5812   -3.4907   15.9570 H   0  0  0  0  0  0  0  0  0  0  0  0
   15.3271   -2.3828   19.4312 H   0  0  0  0  0  0  0  0  0  0  0  0
   15.2449   -0.0905   19.0946 H   0  0  0  0  0  0  0  0  0  0  0  0
   14.8829    1.8646   17.6453 H   0  0  0  0  0  0  0  0  0  0  0  0
   14.2712    1.5598   15.2511 H   0  0  0  0  0  0  0  0  0  0  0  0
   14.1671   -1.5178   11.1674 H   0  0  0  0  0  0  0  0  0  0  0  0
   14.3911    0.1570   11.3273 H   0  0  0  0  0  0  0  0  0  0  0  0
   15.9515   -0.5874    9.6755 H   0  0  0  0  0  0  0  0  0  0  0  0
   16.8132    0.0992   11.0614 H   0  0  0  0  0  0  0  0  0  0  0  0
   16.2604   -2.8644   10.5328 H   0  0  0  0  0  0  0  0  0  0  0  0
   18.7683   -1.2065   10.1986 H   0  0  0  0  0  0  0  0  0  0  0  0
   18.8965   -2.9112   10.6746 H   0  0  0  0  0  0  0  0  0  0  0  0
   17.9266   -3.5491    8.8764 H   0  0  0  0  0  0  0  0  0  0  0  0
   17.5773   -1.4371   12.8940 H   0  0  0  0  0  0  0  0  0  0  0  0
   17.4093   -3.1820   12.6967 H   0  0  0  0  0  0  0  0  0  0  0  0
   14.8204   -2.8548   12.4256 H   0  0  0  0  0  0  0  0  0  0  0  0
   15.5732   -2.5247   13.9179 H   0  0  0  0  0  0  0  0  0  0  0  0
  1  2  1  0
  2  3  1  0
  3  4  2  0
  3  5  2  0
  3  6  1  0
  6  7  1  0
  7  8  2  0
  8  9  1  0
  9 10  2  0
 10 11  1  0
 11 12  1  0
 12 13  2  0
 12 14  1  0
 14 15  1  0
 15 16  1  0
 16 17  1  0
 17 18  1  0
 18 19  1  0
 17 20  1  0
 20 21  1  0
 11 22  2  0
 22 23  1  0
 22  7  1  0
 21 14  1  0
  1 24  1  0
  1 25  1  0
  1 26  1  0
  2 27  1  0
  2 28  1  0
  6 29  1  0
  8 30  1  0
  9 31  1  0
 10 32  1  0
 15 33  1  0
 15 34  1  0
 16 35  1  0
 16 36  1  0
 17 37  1  0
 18 38  1  0
 18 39  1  0
 19 40  1  0
 20 41  1  0
 20 42  1  0
 21 43  1  0
 21 44  1  0
M  END
>  <Energy>  (215) 
56.164929788763473

>  <compound_id>  (215) 
1563

>  <target_id>  (215) 
1

>  <reference_id>  (215) 
10

>  <inspiration_ids>  (215) 
[10, 83]

>  <energy_score>  (215) 
37.60952825825501

>  <distance_score>  (215) 
2.5795556675880915

>  <path>  (215) 
/opt/xchem-fragalysis-2/maxwin/BulkDock/SCRATCH/505732/C1563-P10/C1563-P10.minimised.mol

>  <scratch_subdir>  (215) 
/opt/xchem-fragalysis-2/maxwin/BulkDock/SCRATCH/505732/C1563-P10

>  <fragmenstein_runtime>  (215) 
7.4016900062561035

>  <fragmenstein_outcome>  (215) 
too moved

>  <fragmenstein_mode>  (215) 
expansion

>  <fragmenstein_error>  (215) 


$$$$
C1563-P83
     RDKit          3D

 44 45  0  0  0  0  0  0  0  0999 V2000
   17.6848   -1.9980   17.3294 C   0  0  0  0  0  0  0  0  0  0  0  0
   17.1503   -3.1472   16.5088 C   0  0  0  0  0  0  0  0  0  0  0  0
   15.9976   -4.1898   17.3902 S   0  0  0  0  0  0  0  0  0  0  0  0
   16.6207   -4.5955   18.6326 O   0  0  0  0  0  0  0  0  0  0  0  0
   15.4939   -5.1727   16.4553 O   0  0  0  0  0  0  0  0  0  0  0  0
   14.7424   -3.1506   17.8425 N   0  0  0  0  0  0  0  0  0  0  0  0
   13.7925   -2.8071   16.8294 C   0  0  0  0  0  0  0  0  0  0  0  0
   12.6876   -3.6278   16.5964 C   0  0  0  0  0  0  0  0  0  0  0  0
   11.7851   -3.3071   15.5781 C   0  0  0  0  0  0  0  0  0  0  0  0
   11.9932   -2.1834   14.7802 C   0  0  0  0  0  0  0  0  0  0  0  0
   13.1338   -1.4047   14.9839 C   0  0  0  0  0  0  0  0  0  0  0  0
   13.4977   -0.3745   13.9924 C   0  0  0  0  0  0  0  0  0  0  0  0
   12.7713    0.5199   13.7682 O   0  0  0  0  0  0  0  0  0  0  0  0
   14.8048   -0.7584   13.3413 N   0  0  0  0  0  0  0  0  0  0  0  0
   15.6205   -0.0544   12.2796 C   0  0  0  0  0  0  0  0  0  0  0  0
   16.9948   -0.6506   11.9330 C   0  0  0  0  0  0  0  0  0  0  0  0
   16.7958   -1.9343   11.1511 C   0  0  0  0  0  0  0  0  0  0  0  0
   18.0471   -2.7826   11.0174 C   0  0  0  0  0  0  0  0  0  0  0  0
   17.7633   -3.9236   10.2220 O   0  0  0  0  0  0  0  0  0  0  0  0
   15.7083   -2.6885   11.8714 C   0  0  0  0  0  0  0  0  0  0  0  0
   14.5807   -1.7019   12.1781 C   0  0  0  0  0  0  0  0  0  0  0  0
   14.0144   -1.6969   16.0142 C   0  0  0  0  0  0  0  0  0  0  0  0
   15.0670   -0.8965   16.2404 F   0  0  0  0  0  0  0  0  0  0  0  0
   18.3529   -1.3776   16.7241 H   0  0  0  0  0  0  0  0  0  0  0  0
   18.2546   -2.3657   18.1890 H   0  0  0  0  0  0  0  0  0  0  0  0
   16.8862   -1.3610   17.7178 H   0  0  0  0  0  0  0  0  0  0  0  0
   17.9755   -3.7987   16.2013 H   0  0  0  0  0  0  0  0  0  0  0  0
   16.6578   -2.7951   15.5985 H   0  0  0  0  0  0  0  0  0  0  0  0
   14.3287   -3.5377   18.6954 H   0  0  0  0  0  0  0  0  0  0  0  0
   12.5353   -4.5348   17.1806 H   0  0  0  0  0  0  0  0  0  0  0  0
   10.9407   -3.9612   15.3789 H   0  0  0  0  0  0  0  0  0  0  0  0
   11.3112   -1.9538   13.9655 H   0  0  0  0  0  0  0  0  0  0  0  0
   15.0526    0.3519   11.4249 H   0  0  0  0  0  0  0  0  0  0  0  0
   15.8635    0.8841   12.8043 H   0  0  0  0  0  0  0  0  0  0  0  0
   17.5782    0.0655   11.3431 H   0  0  0  0  0  0  0  0  0  0  0  0
   17.5528   -0.8426   12.8585 H   0  0  0  0  0  0  0  0  0  0  0  0
   16.4306   -1.6865   10.1444 H   0  0  0  0  0  0  0  0  0  0  0  0
   18.8372   -2.2151   10.5153 H   0  0  0  0  0  0  0  0  0  0  0  0
   18.4356   -3.1111   11.9876 H   0  0  0  0  0  0  0  0  0  0  0  0
   17.3767   -4.6183   10.7876 H   0  0  0  0  0  0  0  0  0  0  0  0
   16.0702   -3.1533   12.7966 H   0  0  0  0  0  0  0  0  0  0  0  0
   15.3264   -3.4763   11.2179 H   0  0  0  0  0  0  0  0  0  0  0  0
   14.0760   -1.2764   11.3000 H   0  0  0  0  0  0  0  0  0  0  0  0
   13.7869   -2.3663   12.5497 H   0  0  0  0  0  0  0  0  0  0  0  0
  1  2  1  0
  2  3  1  0
  3  4  2  0
  3  5  2  0
  3  6  1  0
  6  7  1  0
  7  8  2  0
  8  9  1  0
  9 10  2  0
 10 11  1  0
 11 12  1  0
 12 13  2  0
 12 14  1  0
 14 15  1  0
 15 16  1  0
 16 17  1  0
 17 18  1  0
 18 19  1  0
 17 20  1  0
 20 21  1  0
 11 22  2  0
 22 23  1  0
 22  7  1  0
 21 14  1  0
  1 24  1  0
  1 25  1  0
  1 26  1  0
  2 27  1  0
  2 28  1  0
  6 29  1  0
  8 30  1  0
  9 31  1  0
 10 32  1  0
 15 33  1  0
 15 34  1  0
 16 35  1  0
 16 36  1  0
 17 37  1  0
 18 38  1  0
 18 39  1  0
 19 40  1  0
 20 41  1  0
 20 42  1  0
 21 43  1  0
 21 44  1  0
M  END
>  <Energy>  (216) 
58.154874493186988

>  <compound_id>  (216) 
1563

>  <target_id>  (216) 
1

>  <reference_id>  (216) 
83

>  <inspiration_ids>  (216) 
[10, 83]

>  <energy_score>  (216) 
47.56945882040584

>  <distance_score>  (216) 
2.0142802363705132

>  <path>  (216) 
/opt/xchem-fragalysis-2/maxwin/BulkDock/SCRATCH/505732/C1563-P83/C1563-P83.minimised.mol

>  <scratch_subdir>  (216) 
/opt/xchem-fragalysis-2/maxwin/BulkDock/SCRATCH/505732/C1563-P83

>  <fragmenstein_runtime>  (216) 
6.513786315917969

>  <fragmenstein_outcome>  (216) 
too moved

>  <fragmenstein_mode>  (216) 
expansion

>  <fragmenstein_error>  (216) 


$$$$
C1565-P10
     RDKit          3D

 30 30  0  0  0  0  0  0  0  0999 V2000
   17.7786   -2.2186   16.6271 C   0  0  0  0  0  0  0  0  0  0  0  0
   16.9764   -3.4687   16.3335 C   0  0  0  0  0  0  0  0  0  0  0  0
   15.8518   -3.9195   17.6507 S   0  0  0  0  0  0  0  0  0  0  0  0
   16.6071   -3.9390   18.8849 O   0  0  0  0  0  0  0  0  0  0  0  0
   15.1174   -5.0854   17.2181 O   0  0  0  0  0  0  0  0  0  0  0  0
   14.8327   -2.5843   17.7494 N   0  0  0  0  0  0  0  0  0  0  0  0
   13.8921   -2.3222   16.6972 C   0  0  0  0  0  0  0  0  0  0  0  0
   12.8369   -3.1847   16.4167 C   0  0  0  0  0  0  0  0  0  0  0  0
   12.6634   -4.2878   17.1437 F   0  0  0  0  0  0  0  0  0  0  0  0
   11.9120   -2.8938   15.4217 C   0  0  0  0  0  0  0  0  0  0  0  0
   12.0536   -1.7266   14.6775 C   0  0  0  0  0  0  0  0  0  0  0  0
   13.1060   -0.8433   14.9256 C   0  0  0  0  0  0  0  0  0  0  0  0
   13.1102    0.2507   14.1068 O   0  0  0  0  0  0  0  0  0  0  0  0
   14.2055    1.1510   14.1682 C   0  0  0  0  0  0  0  0  0  0  0  0
   14.1965    2.1915   15.2810 C   0  0  0  0  0  0  0  0  0  0  0  0
   15.0797    3.0106   15.4887 O   0  0  0  0  0  0  0  0  0  0  0  0
   13.0948    2.1843   16.0582 O   0  0  0  0  0  0  0  0  0  0  0  0
   14.0063   -1.1455   15.9513 C   0  0  0  0  0  0  0  0  0  0  0  0
   14.9997   -0.3007   16.2650 F   0  0  0  0  0  0  0  0  0  0  0  0
   18.3822   -2.3414   17.5319 H   0  0  0  0  0  0  0  0  0  0  0  0
   18.4577   -2.0035   15.7961 H   0  0  0  0  0  0  0  0  0  0  0  0
   17.1390   -1.3454   16.7720 H   0  0  0  0  0  0  0  0  0  0  0  0
   16.3906   -3.3593   15.4160 H   0  0  0  0  0  0  0  0  0  0  0  0
   17.6497   -4.3222   16.2003 H   0  0  0  0  0  0  0  0  0  0  0  0
   15.2867   -1.7738   18.1723 H   0  0  0  0  0  0  0  0  0  0  0  0
   11.0910   -3.5781   15.2283 H   0  0  0  0  0  0  0  0  0  0  0  0
   11.3368   -1.4984   13.8942 H   0  0  0  0  0  0  0  0  0  0  0  0
   14.1714    1.7222   13.2330 H   0  0  0  0  0  0  0  0  0  0  0  0
   15.1598    0.6124   14.1703 H   0  0  0  0  0  0  0  0  0  0  0  0
   13.2517    2.9228   16.6834 H   0  0  0  0  0  0  0  0  0  0  0  0
  1  2  1  0
  2  3  1  0
  3  4  2  0
  3  5  2  0
  3  6  1  0
  6  7  1  0
  7  8  2  0
  8  9  1  0
  8 10  1  0
 10 11  2  0
 11 12  1  0
 12 13  1  0
 13 14  1  0
 14 15  1  0
 15 16  2  0
 15 17  1  0
 12 18  2  0
 18 19  1  0
 18  7  1  0
  1 20  1  0
  1 21  1  0
  1 22  1  0
  2 23  1  0
  2 24  1  0
  6 25  1  0
 10 26  1  0
 11 27  1  0
 14 28  1  0
 14 29  1  0
 17 30  1  0
M  END
>  <Energy>  (217) 
1.533349104092482

>  <compound_id>  (217) 
1565

>  <target_id>  (217) 
1

>  <reference_id>  (217) 
10

>  <inspiration_ids>  (217) 
[10, 97]

>  <energy_score>  (217) 
-35.54786304811583

>  <distance_score>  (217) 
0.9802584756044624

>  <path>  (217) 
/opt/xchem-fragalysis-2/maxwin/BulkDock/SCRATCH/505732/C1565-P10/C1565-P10.minimised.mol

>  <scratch_subdir>  (217) 
/opt/xchem-fragalysis-2/maxwin/BulkDock/SCRATCH/505732/C1565-P10

>  <fragmenstein_runtime>  (217) 
1.3497707843780518

>  <fragmenstein_outcome>  (217) 
acceptable

>  <fragmenstein_mode>  (217) 
expansion

>  <fragmenstein_error>  (217) 


$$$$
C1565-P97
     RDKit          3D

 30 30  0  0  0  0  0  0  0  0999 V2000
   17.8261   -2.0906   16.7316 C   0  0  0  0  0  0  0  0  0  0  0  0
   17.0597   -3.3341   16.3376 C   0  0  0  0  0  0  0  0  0  0  0  0
   15.9165   -3.8961   17.5926 S   0  0  0  0  0  0  0  0  0  0  0  0
   16.6396   -3.9827   18.8429 O   0  0  0  0  0  0  0  0  0  0  0  0
   15.2221   -5.0423   17.0564 O   0  0  0  0  0  0  0  0  0  0  0  0
   14.8580   -2.5983   17.7533 N   0  0  0  0  0  0  0  0  0  0  0  0
   13.9116   -2.3296   16.7091 C   0  0  0  0  0  0  0  0  0  0  0  0
   12.8645   -3.2027   16.4269 C   0  0  0  0  0  0  0  0  0  0  0  0
   12.6961   -4.3057   17.1583 F   0  0  0  0  0  0  0  0  0  0  0  0
   11.9475   -2.9240   15.4219 C   0  0  0  0  0  0  0  0  0  0  0  0
   12.0889   -1.7595   14.6734 C   0  0  0  0  0  0  0  0  0  0  0  0
   13.1219   -0.8581   14.9363 C   0  0  0  0  0  0  0  0  0  0  0  0
   13.1181    0.2364   14.1180 O   0  0  0  0  0  0  0  0  0  0  0  0
   13.9751    1.3279   14.4226 C   0  0  0  0  0  0  0  0  0  0  0  0
   13.6190    2.1221   15.6744 C   0  0  0  0  0  0  0  0  0  0  0  0
   12.7342    1.8850   16.4816 O   0  0  0  0  0  0  0  0  0  0  0  0
   14.4228    3.1947   15.8413 O   0  0  0  0  0  0  0  0  0  0  0  0
   14.0226   -1.1532   15.9627 C   0  0  0  0  0  0  0  0  0  0  0  0
   15.0200   -0.3097   16.2668 F   0  0  0  0  0  0  0  0  0  0  0  0
   18.4156   -2.2624   17.6378 H   0  0  0  0  0  0  0  0  0  0  0  0
   18.5155   -1.8035   15.9315 H   0  0  0  0  0  0  0  0  0  0  0  0
   17.1641   -1.2436   16.9241 H   0  0  0  0  0  0  0  0  0  0  0  0
   16.4927   -3.1760   15.4153 H   0  0  0  0  0  0  0  0  0  0  0  0
   17.7551   -4.1621   16.1639 H   0  0  0  0  0  0  0  0  0  0  0  0
   15.2843   -1.7903   18.2080 H   0  0  0  0  0  0  0  0  0  0  0  0
   11.1337   -3.6149   15.2227 H   0  0  0  0  0  0  0  0  0  0  0  0
   11.3821   -1.5410   13.8796 H   0  0  0  0  0  0  0  0  0  0  0  0
   13.8816    2.0237   13.5807 H   0  0  0  0  0  0  0  0  0  0  0  0
   15.0214    1.0069   14.4536 H   0  0  0  0  0  0  0  0  0  0  0  0
   14.0933    3.6229   16.6601 H   0  0  0  0  0  0  0  0  0  0  0  0
  1  2  1  0
  2  3  1  0
  3  4  2  0
  3  5  2  0
  3  6  1  0
  6  7  1  0
  7  8  2  0
  8  9  1  0
  8 10  1  0
 10 11  2  0
 11 12  1  0
 12 13  1  0
 13 14  1  0
 14 15  1  0
 15 16  2  0
 15 17  1  0
 12 18  2  0
 18 19  1  0
 18  7  1  0
  1 20  1  0
  1 21  1  0
  1 22  1  0
  2 23  1  0
  2 24  1  0
  6 25  1  0
 10 26  1  0
 11 27  1  0
 14 28  1  0
 14 29  1  0
 17 30  1  0
M  END
>  <Energy>  (218) 
-1.382698875663392

>  <compound_id>  (218) 
1565

>  <target_id>  (218) 
1

>  <reference_id>  (218) 
97

>  <inspiration_ids>  (218) 
[10, 97]

>  <energy_score>  (218) 
-38.46391102787291

>  <distance_score>  (218) 
1.023245560055802

>  <path>  (218) 
/opt/xchem-fragalysis-2/maxwin/BulkDock/SCRATCH/505732/C1565-P97/C1565-P97.minimised.mol

>  <scratch_subdir>  (218) 
/opt/xchem-fragalysis-2/maxwin/BulkDock/SCRATCH/505732/C1565-P97

>  <fragmenstein_runtime>  (218) 
1.447068691253662

>  <fragmenstein_outcome>  (218) 
too moved

>  <fragmenstein_mode>  (218) 
expansion

>  <fragmenstein_error>  (218) 


$$$$
C1566-P10
     RDKit          3D

 40 41  0  0  0  0  0  0  0  0999 V2000
   17.9656   -2.0923   17.9114 C   0  0  0  0  0  0  0  0  0  0  0  0
   17.5367   -3.4528   18.4297 C   0  0  0  0  0  0  0  0  0  0  0  0
   15.8029   -3.5944   18.8704 S   0  0  0  0  0  0  0  0  0  0  0  0
   15.7875   -3.4252   20.3090 O   0  0  0  0  0  0  0  0  0  0  0  0
   15.2109   -4.7857   18.3016 O   0  0  0  0  0  0  0  0  0  0  0  0
   15.1520   -2.1601   18.2926 N   0  0  0  0  0  0  0  0  0  0  0  0
   14.2389   -2.0092   17.2058 C   0  0  0  0  0  0  0  0  0  0  0  0
   13.7155   -0.7214   17.0173 C   0  0  0  0  0  0  0  0  0  0  0  0
   12.7231   -0.4582   16.0636 C   0  0  0  0  0  0  0  0  0  0  0  0
   12.1873   -1.5003   15.3303 C   0  0  0  0  0  0  0  0  0  0  0  0
   12.7715   -2.7549   15.4436 C   0  0  0  0  0  0  0  0  0  0  0  0
   13.9003   -2.9613   16.2617 C   0  0  0  0  0  0  0  0  0  0  0  0
   14.7014   -4.0439   15.9626 O   0  0  0  0  0  0  0  0  0  0  0  0
   16.1176   -3.6471   15.7303 N   0  0  0  0  0  0  0  0  0  0  0  0
   16.2129   -2.7514   14.5696 C   0  0  0  0  0  0  0  0  0  0  0  0
   17.6621   -2.4497   14.1857 C   0  0  0  0  0  0  0  0  0  0  0  0
   18.4575   -3.7231   13.9479 C   0  0  0  0  0  0  0  0  0  0  0  0
   19.8366   -3.4077   13.7581 O   0  0  0  0  0  0  0  0  0  0  0  0
   18.3069   -4.6955   15.1084 C   0  0  0  0  0  0  0  0  0  0  0  0
   16.8426   -4.9090   15.5043 C   0  0  0  0  0  0  0  0  0  0  0  0
   17.3877   -1.7527   17.0538 H   0  0  0  0  0  0  0  0  0  0  0  0
   19.0212   -2.1168   17.6229 H   0  0  0  0  0  0  0  0  0  0  0  0
   17.8554   -1.3354   18.6958 H   0  0  0  0  0  0  0  0  0  0  0  0
   17.7959   -4.2594   17.7588 H   0  0  0  0  0  0  0  0  0  0  0  0
   18.0947   -3.6572   19.3521 H   0  0  0  0  0  0  0  0  0  0  0  0
   14.9930   -1.5335   19.0828 H   0  0  0  0  0  0  0  0  0  0  0  0
   14.0695    0.1010   17.6351 H   0  0  0  0  0  0  0  0  0  0  0  0
   12.3367    0.5502   15.9418 H   0  0  0  0  0  0  0  0  0  0  0  0
   11.3681   -1.3362   14.6329 H   0  0  0  0  0  0  0  0  0  0  0  0
   12.3764   -3.5416   14.8165 H   0  0  0  0  0  0  0  0  0  0  0  0
   15.7462   -1.7867   14.7947 H   0  0  0  0  0  0  0  0  0  0  0  0
   15.6923   -3.1451   13.6965 H   0  0  0  0  0  0  0  0  0  0  0  0
   17.6858   -1.8289   13.2813 H   0  0  0  0  0  0  0  0  0  0  0  0
   18.1481   -1.8446   14.9594 H   0  0  0  0  0  0  0  0  0  0  0  0
   18.1278   -4.1951   13.0211 H   0  0  0  0  0  0  0  0  0  0  0  0
   20.1547   -2.9614   14.5617 H   0  0  0  0  0  0  0  0  0  0  0  0
   18.8935   -4.3304   15.9582 H   0  0  0  0  0  0  0  0  0  0  0  0
   18.7622   -5.6575   14.8420 H   0  0  0  0  0  0  0  0  0  0  0  0
   16.8162   -5.5259   16.4082 H   0  0  0  0  0  0  0  0  0  0  0  0
   16.3633   -5.5255   14.7560 H   0  0  0  0  0  0  0  0  0  0  0  0
  1  2  1  0
  2  3  1  0
  3  4  2  0
  3  5  2  0
  3  6  1  0
  6  7  1  0
  7  8  2  0
  8  9  1  0
  9 10  2  0
 10 11  1  0
 11 12  2  0
 12 13  1  0
 13 14  1  0
 14 15  1  0
 15 16  1  0
 16 17  1  0
 17 18  1  0
 17 19  1  0
 19 20  1  0
 12  7  1  0
 20 14  1  0
  1 21  1  0
  1 22  1  0
  1 23  1  0
  2 24  1  0
  2 25  1  0
  6 26  1  0
  8 27  1  0
  9 28  1  0
 10 29  1  0
 11 30  1  0
 15 31  1  0
 15 32  1  0
 16 33  1  0
 16 34  1  0
 17 35  1  0
 18 36  1  0
 19 37  1  0
 19 38  1  0
 20 39  1  0
 20 40  1  0
M  END
>  <Energy>  (219) 
12.720777174582771

>  <compound_id>  (219) 
1566

>  <target_id>  (219) 
1

>  <reference_id>  (219) 
10

>  <inspiration_ids>  (219) 
[10, 98]

>  <energy_score>  (219) 
-30.90383421077175

>  <distance_score>  (219) 
1.9129065814815085

>  <path>  (219) 
/opt/xchem-fragalysis-2/maxwin/BulkDock/SCRATCH/505732/C1566-P10/C1566-P10.minimised.mol

>  <scratch_subdir>  (219) 
/opt/xchem-fragalysis-2/maxwin/BulkDock/SCRATCH/505732/C1566-P10

>  <fragmenstein_runtime>  (219) 
1.872575283050537

>  <fragmenstein_outcome>  (219) 
too moved

>  <fragmenstein_mode>  (219) 
expansion

>  <fragmenstein_error>  (219) 


$$$$
C1566-P98
     RDKit          3D

 40 41  0  0  0  0  0  0  0  0999 V2000
   17.9019   -2.0485   17.8784 C   0  0  0  0  0  0  0  0  0  0  0  0
   17.5162   -3.4289   18.3778 C   0  0  0  0  0  0  0  0  0  0  0  0
   15.7877   -3.6340   18.8187 S   0  0  0  0  0  0  0  0  0  0  0  0
   15.7749   -3.5102   20.2623 O   0  0  0  0  0  0  0  0  0  0  0  0
   15.2228   -4.8231   18.2186 O   0  0  0  0  0  0  0  0  0  0  0  0
   15.0876   -2.2057   18.2912 N   0  0  0  0  0  0  0  0  0  0  0  0
   14.2024   -2.0334   17.1836 C   0  0  0  0  0  0  0  0  0  0  0  0
   13.6310   -0.7577   17.0519 C   0  0  0  0  0  0  0  0  0  0  0  0
   12.6545   -0.4767   16.0864 C   0  0  0  0  0  0  0  0  0  0  0  0
   12.1996   -1.4863   15.2598 C   0  0  0  0  0  0  0  0  0  0  0  0
   12.8360   -2.7195   15.3131 C   0  0  0  0  0  0  0  0  0  0  0  0
   13.9255   -2.9454   16.1804 C   0  0  0  0  0  0  0  0  0  0  0  0
   14.7380   -4.0195   15.8921 O   0  0  0  0  0  0  0  0  0  0  0  0
   16.1488   -3.6110   15.6620 N   0  0  0  0  0  0  0  0  0  0  0  0
   16.2385   -2.7243   14.4933 C   0  0  0  0  0  0  0  0  0  0  0  0
   17.6874   -2.4079   14.1226 C   0  0  0  0  0  0  0  0  0  0  0  0
   18.4828   -3.6800   13.8754 C   0  0  0  0  0  0  0  0  0  0  0  0
   19.8586   -3.3626   13.6704 O   0  0  0  0  0  0  0  0  0  0  0  0
   18.3446   -4.6471   15.0421 C   0  0  0  0  0  0  0  0  0  0  0  0
   16.8814   -4.8701   15.4353 C   0  0  0  0  0  0  0  0  0  0  0  0
   17.3174   -1.7160   17.0221 H   0  0  0  0  0  0  0  0  0  0  0  0
   17.7645   -1.3056   18.6718 H   0  0  0  0  0  0  0  0  0  0  0  0
   18.9589   -2.0352   17.5941 H   0  0  0  0  0  0  0  0  0  0  0  0
   17.8025   -4.2173   17.6964 H   0  0  0  0  0  0  0  0  0  0  0  0
   18.0813   -3.6269   19.2973 H   0  0  0  0  0  0  0  0  0  0  0  0
   14.8862   -1.6232   19.1053 H   0  0  0  0  0  0  0  0  0  0  0  0
   13.9268    0.0385   17.7322 H   0  0  0  0  0  0  0  0  0  0  0  0
   12.2264    0.5196   16.0156 H   0  0  0  0  0  0  0  0  0  0  0  0
   11.4048   -1.3083   14.5379 H   0  0  0  0  0  0  0  0  0  0  0  0
   12.5117   -3.4703   14.6061 H   0  0  0  0  0  0  0  0  0  0  0  0
   15.7523   -1.7659   14.7045 H   0  0  0  0  0  0  0  0  0  0  0  0
   15.7411   -3.1414   13.6157 H   0  0  0  0  0  0  0  0  0  0  0  0
   17.7144   -1.7776   13.2251 H   0  0  0  0  0  0  0  0  0  0  0  0
   18.1662   -1.8116   14.9081 H   0  0  0  0  0  0  0  0  0  0  0  0
   18.1382   -4.1551   12.9542 H   0  0  0  0  0  0  0  0  0  0  0  0
   20.1848   -2.9157   14.4704 H   0  0  0  0  0  0  0  0  0  0  0  0
   18.9253   -4.2703   15.8912 H   0  0  0  0  0  0  0  0  0  0  0  0
   18.8092   -5.6060   14.7813 H   0  0  0  0  0  0  0  0  0  0  0  0
   16.8548   -5.4925   16.3352 H   0  0  0  0  0  0  0  0  0  0  0  0
   16.4074   -5.4819   14.6803 H   0  0  0  0  0  0  0  0  0  0  0  0
  1  2  1  0
  2  3  1  0
  3  4  2  0
  3  5  2  0
  3  6  1  0
  6  7  1  0
  7  8  2  0
  8  9  1  0
  9 10  2  0
 10 11  1  0
 11 12  2  0
 12 13  1  0
 13 14  1  0
 14 15  1  0
 15 16  1  0
 16 17  1  0
 17 18  1  0
 17 19  1  0
 19 20  1  0
 12  7  1  0
 20 14  1  0
  1 21  1  0
  1 22  1  0
  1 23  1  0
  2 24  1  0
  2 25  1  0
  6 26  1  0
  8 27  1  0
  9 28  1  0
 10 29  1  0
 11 30  1  0
 15 31  1  0
 15 32  1  0
 16 33  1  0
 16 34  1  0
 17 35  1  0
 18 36  1  0
 19 37  1  0
 19 38  1  0
 20 39  1  0
 20 40  1  0
M  END
>  <Energy>  (220) 
10.165331438120335

>  <compound_id>  (220) 
1566

>  <target_id>  (220) 
1

>  <reference_id>  (220) 
98

>  <inspiration_ids>  (220) 
[10, 98]

>  <energy_score>  (220) 
-33.459279947234364

>  <distance_score>  (220) 
1.9341836428350323

>  <path>  (220) 
/opt/xchem-fragalysis-2/maxwin/BulkDock/SCRATCH/505732/C1566-P98/C1566-P98.minimised.mol

>  <scratch_subdir>  (220) 
/opt/xchem-fragalysis-2/maxwin/BulkDock/SCRATCH/505732/C1566-P98

>  <fragmenstein_runtime>  (220) 
1.6414508819580078

>  <fragmenstein_outcome>  (220) 
too moved

>  <fragmenstein_mode>  (220) 
expansion

>  <fragmenstein_error>  (220) 


$$$$
C1568-P10
     RDKit          3D

 44 44  0  0  0  0  0  0  0  0999 V2000
   17.1393   -1.3645   11.3724 C   0  0  0  0  0  0  0  0  0  0  0  0
   16.1086   -0.2784   11.6520 C   0  0  0  0  0  0  0  0  0  0  0  0
   14.6764   -0.8181   11.7220 C   0  0  0  0  0  0  0  0  0  0  0  0
   14.3667   -1.6393   12.9815 C   0  0  0  0  0  0  0  0  0  0  0  0
   13.5975   -0.8933   14.0994 C   0  0  0  0  0  0  0  0  0  0  0  0
   13.3443   -1.8342   15.2965 C   0  0  0  0  0  0  0  0  0  0  0  0
   14.5618   -2.4776   15.9965 C   0  0  0  0  0  0  0  0  0  0  0  0
   15.6104   -1.4764   16.5719 C   0  0  0  0  0  0  0  0  0  0  0  0
   17.0790   -1.8789   16.9505 N   0  0  0  0  0  0  0  0  0  0  0  0
   16.3688   -2.7570   17.9122 C   0  0  0  0  0  0  0  0  0  0  0  0
   17.8185   -2.1966   15.7699 C   0  0  0  0  0  0  0  0  0  0  0  0
   18.5038   -0.9453   15.2601 C   0  0  0  0  0  0  0  0  0  0  0  0
   17.9772   -3.2449   15.2061 O   0  0  0  0  0  0  0  0  0  0  0  0
   14.9467   -0.3602   17.4241 C   0  0  0  0  0  0  0  0  0  0  0  0
   14.3726   -0.6007   18.4859 O   0  0  0  0  0  0  0  0  0  0  0  0
   15.0559    1.0460   16.9407 C   0  0  0  0  0  0  0  0  0  0  0  0
   13.8628    1.3724   15.6771 S   0  0  0  0  0  0  0  0  0  0  0  0
   14.1550    2.6947   15.1691 O   0  0  0  0  0  0  0  0  0  0  0  0
   12.5348    1.0265   16.1161 O   0  0  0  0  0  0  0  0  0  0  0  0
   14.3461    0.3394   14.4490 N   0  0  0  0  0  0  0  0  0  0  0  0
   18.1348   -0.9197   11.2741 H   0  0  0  0  0  0  0  0  0  0  0  0
   17.1827   -2.1015   12.1790 H   0  0  0  0  0  0  0  0  0  0  0  0
   16.9117   -1.8902   10.4396 H   0  0  0  0  0  0  0  0  0  0  0  0
   16.3753    0.2477   12.5737 H   0  0  0  0  0  0  0  0  0  0  0  0
   16.1609    0.4575   10.8406 H   0  0  0  0  0  0  0  0  0  0  0  0
   13.9677    0.0125   11.6286 H   0  0  0  0  0  0  0  0  0  0  0  0
   14.5205   -1.4591   10.8463 H   0  0  0  0  0  0  0  0  0  0  0  0
   15.2919   -2.0684   13.3763 H   0  0  0  0  0  0  0  0  0  0  0  0
   13.7393   -2.4809   12.6680 H   0  0  0  0  0  0  0  0  0  0  0  0
   12.6286   -0.5803   13.6891 H   0  0  0  0  0  0  0  0  0  0  0  0
   12.7073   -2.6552   14.9401 H   0  0  0  0  0  0  0  0  0  0  0  0
   12.7351   -1.3374   16.0567 H   0  0  0  0  0  0  0  0  0  0  0  0
   14.1359   -3.0907   16.8012 H   0  0  0  0  0  0  0  0  0  0  0  0
   15.0684   -3.1669   15.3154 H   0  0  0  0  0  0  0  0  0  0  0  0
   15.8635   -0.9189   15.6642 H   0  0  0  0  0  0  0  0  0  0  0  0
   17.2103   -3.1589   18.4998 H   0  0  0  0  0  0  0  0  0  0  0  0
   15.9845   -3.6842   17.4710 H   0  0  0  0  0  0  0  0  0  0  0  0
   15.7631   -2.3056   18.6983 H   0  0  0  0  0  0  0  0  0  0  0  0
   18.0826   -0.6774   14.2883 H   0  0  0  0  0  0  0  0  0  0  0  0
   18.3771   -0.1009   15.9439 H   0  0  0  0  0  0  0  0  0  0  0  0
   19.5743   -1.1436   15.1564 H   0  0  0  0  0  0  0  0  0  0  0  0
   16.0596    1.2554   16.5626 H   0  0  0  0  0  0  0  0  0  0  0  0
   14.8543    1.7349   17.7668 H   0  0  0  0  0  0  0  0  0  0  0  0
   14.5508    0.9257   13.6331 H   0  0  0  0  0  0  0  0  0  0  0  0
  1  2  1  0
  2  3  1  0
  3  4  1  0
  4  5  1  0
  5  6  1  0
  6  7  1  0
  7  8  1  0
  8  9  1  0
  9 10  1  0
  9 11  1  0
 11 12  1  0
 11 13  2  0
  8 14  1  0
 14 15  2  0
 14 16  1  0
 16 17  1  0
 17 18  2  0
 17 19  2  0
 17 20  1  0
 20  5  1  0
  1 21  1  0
  1 22  1  0
  1 23  1  0
  2 24  1  0
  2 25  1  0
  3 26  1  0
  3 27  1  0
  4 28  1  0
  4 29  1  0
  5 30  1  0
  6 31  1  0
  6 32  1  0
  7 33  1  0
  7 34  1  0
  8 35  1  0
 10 36  1  0
 10 37  1  0
 10 38  1  0
 12 39  1  0
 12 40  1  0
 12 41  1  0
 16 42  1  0
 16 43  1  0
 20 44  1  0
M  END
>  <Energy>  (221) 
5.4005010487021146

>  <compound_id>  (221) 
1568

>  <target_id>  (221) 
1

>  <reference_id>  (221) 
10

>  <inspiration_ids>  (221) 
[10, 106]

>  <energy_score>  (221) 
-27.308841523083032

>  <distance_score>  (221) 
2.864026402638026

>  <path>  (221) 
/opt/xchem-fragalysis-2/maxwin/BulkDock/SCRATCH/505732/C1568-P10/C1568-P10.minimised.mol

>  <scratch_subdir>  (221) 
/opt/xchem-fragalysis-2/maxwin/BulkDock/SCRATCH/505732/C1568-P10

>  <fragmenstein_runtime>  (221) 
4.277677059173584

>  <fragmenstein_outcome>  (221) 
too moved

>  <fragmenstein_mode>  (221) 
expansion

>  <fragmenstein_error>  (221) 


$$$$
C1568-P106
     RDKit          3D

 44 44  0  0  0  0  0  0  0  0999 V2000
   12.4882    2.1068   12.1317 C   0  0  0  0  0  0  0  0  0  0  0  0
   11.2973    1.8156   13.0310 C   0  0  0  0  0  0  0  0  0  0  0  0
   11.4791    0.5850   13.9219 C   0  0  0  0  0  0  0  0  0  0  0  0
   12.6178    0.7579   14.9258 C   0  0  0  0  0  0  0  0  0  0  0  0
   12.6982   -0.3675   15.9575 C   0  0  0  0  0  0  0  0  0  0  0  0
   12.9490   -1.7712   15.3636 C   0  0  0  0  0  0  0  0  0  0  0  0
   13.7628   -2.7146   16.2661 C   0  0  0  0  0  0  0  0  0  0  0  0
   15.3222   -2.5394   16.0874 C   0  0  0  0  0  0  0  0  0  0  0  0
   16.5091   -3.2623   16.8232 N   0  0  0  0  0  0  0  0  0  0  0  0
   15.6007   -3.1330   17.9757 C   0  0  0  0  0  0  0  0  0  0  0  0
   16.9157   -4.4162   16.0803 C   0  0  0  0  0  0  0  0  0  0  0  0
   17.9961   -4.0083   15.0995 C   0  0  0  0  0  0  0  0  0  0  0  0
   16.5503   -5.5580   16.1494 O   0  0  0  0  0  0  0  0  0  0  0  0
   15.8034   -1.1358   15.6284 C   0  0  0  0  0  0  0  0  0  0  0  0
   15.7435   -0.8085   14.4387 O   0  0  0  0  0  0  0  0  0  0  0  0
   16.2797   -0.1582   16.6367 C   0  0  0  0  0  0  0  0  0  0  0  0
   14.9497    0.8921   17.1346 S   0  0  0  0  0  0  0  0  0  0  0  0
   14.8027    1.9883   16.2120 O   0  0  0  0  0  0  0  0  0  0  0  0
   15.1410    1.1480   18.5480 O   0  0  0  0  0  0  0  0  0  0  0  0
   13.5919   -0.0767   17.1082 N   0  0  0  0  0  0  0  0  0  0  0  0
   12.2438    2.9167   11.4368 H   0  0  0  0  0  0  0  0  0  0  0  0
   13.3604    2.4217   12.7120 H   0  0  0  0  0  0  0  0  0  0  0  0
   12.7641    1.2275   11.5428 H   0  0  0  0  0  0  0  0  0  0  0  0
   11.0842    2.6961   13.6485 H   0  0  0  0  0  0  0  0  0  0  0  0
   10.4188    1.6561   12.4026 H   0  0  0  0  0  0  0  0  0  0  0  0
   10.5400    0.4080   14.4603 H   0  0  0  0  0  0  0  0  0  0  0  0
   11.6622   -0.2966   13.3007 H   0  0  0  0  0  0  0  0  0  0  0  0
   13.5646    0.8260   14.3807 H   0  0  0  0  0  0  0  0  0  0  0  0
   12.4611    1.7101   15.4473 H   0  0  0  0  0  0  0  0  0  0  0  0
   11.6992   -0.4209   16.4126 H   0  0  0  0  0  0  0  0  0  0  0  0
   13.4037   -1.7102   14.3688 H   0  0  0  0  0  0  0  0  0  0  0  0
   11.9672   -2.2340   15.1909 H   0  0  0  0  0  0  0  0  0  0  0  0
   13.4022   -2.5776   17.2915 H   0  0  0  0  0  0  0  0  0  0  0  0
   13.5104   -3.7528   16.0166 H   0  0  0  0  0  0  0  0  0  0  0  0
   15.4036   -3.0375   15.1041 H   0  0  0  0  0  0  0  0  0  0  0  0
   16.2479   -3.4250   18.8175 H   0  0  0  0  0  0  0  0  0  0  0  0
   14.8435   -3.9281   18.0099 H   0  0  0  0  0  0  0  0  0  0  0  0
   15.2811   -2.1268   18.2725 H   0  0  0  0  0  0  0  0  0  0  0  0
   17.5469   -3.7979   14.1264 H   0  0  0  0  0  0  0  0  0  0  0  0
   18.5352   -3.1222   15.4474 H   0  0  0  0  0  0  0  0  0  0  0  0
   18.7173   -4.8247   15.0004 H   0  0  0  0  0  0  0  0  0  0  0  0
   16.7076   -0.6485   17.5108 H   0  0  0  0  0  0  0  0  0  0  0  0
   17.0607    0.4700   16.1979 H   0  0  0  0  0  0  0  0  0  0  0  0
   13.1172    0.0471   18.0013 H   0  0  0  0  0  0  0  0  0  0  0  0
  1  2  1  0
  2  3  1  0
  3  4  1  0
  4  5  1  0
  5  6  1  0
  6  7  1  0
  7  8  1  0
  8  9  1  0
  9 10  1  0
  9 11  1  0
 11 12  1  0
 11 13  2  0
  8 14  1  0
 14 15  2  0
 14 16  1  0
 16 17  1  0
 17 18  2  0
 17 19  2  0
 17 20  1  0
 20  5  1  0
  1 21  1  0
  1 22  1  0
  1 23  1  0
  2 24  1  0
  2 25  1  0
  3 26  1  0
  3 27  1  0
  4 28  1  0
  4 29  1  0
  5 30  1  0
  6 31  1  0
  6 32  1  0
  7 33  1  0
  7 34  1  0
  8 35  1  0
 10 36  1  0
 10 37  1  0
 10 38  1  0
 12 39  1  0
 12 40  1  0
 12 41  1  0
 16 42  1  0
 16 43  1  0
 20 44  1  0
M  END
>  <Energy>  (222) 
22.242337605145579

>  <compound_id>  (222) 
1568

>  <target_id>  (222) 
1

>  <reference_id>  (222) 
106

>  <inspiration_ids>  (222) 
[10, 106]

>  <energy_score>  (222) 
-10.46700496663911

>  <distance_score>  (222) 
2.6094544247669584

>  <path>  (222) 
/opt/xchem-fragalysis-2/maxwin/BulkDock/SCRATCH/505732/C1568-P106/C1568-P106.minimised.mol

>  <scratch_subdir>  (222) 
/opt/xchem-fragalysis-2/maxwin/BulkDock/SCRATCH/505732/C1568-P106

>  <fragmenstein_runtime>  (222) 
3.1641414165496826

>  <fragmenstein_outcome>  (222) 
too moved

>  <fragmenstein_mode>  (222) 
expansion

>  <fragmenstein_error>  (222) 


$$$$
C1569-P10
     RDKit          3D

 44 45  0  0  0  0  0  0  0  0999 V2000
   15.7474   -4.3571   19.1614 O   0  0  0  0  0  0  0  0  0  0  0  0
   15.6995   -4.0330   17.7525 S   0  0  0  0  0  0  0  0  0  0  0  0
   15.2498   -5.0154   16.7958 O   0  0  0  0  0  0  0  0  0  0  0  0
   17.3326   -3.4384   17.2785 C   0  0  0  0  0  0  0  0  0  0  0  0
   17.6729   -2.0457   17.7904 C   0  0  0  0  0  0  0  0  0  0  0  0
   18.0518   -2.0379   19.2759 C   0  0  0  0  0  0  0  0  0  0  0  0
   18.2639   -0.6494   19.7726 C   0  0  0  0  0  0  0  0  0  0  0  0
   19.2485    0.2821   19.5243 C   0  0  0  0  0  0  0  0  0  0  0  0
   18.8770    1.4083   20.2804 C   0  0  0  0  0  0  0  0  0  0  0  0
   17.7462    1.2132   20.9617 N   0  0  0  0  0  0  0  0  0  0  0  0
   17.4029   -0.0485   20.6527 N   0  0  0  0  0  0  0  0  0  0  0  0
   14.6650   -2.7352   17.6470 N   0  0  0  0  0  0  0  0  0  0  0  0
   14.1218   -2.1792   16.3724 C   0  0  0  0  0  0  0  0  0  0  0  0
   15.1391   -2.1657   15.2465 C   0  0  0  0  0  0  0  0  0  0  0  0
   16.0113   -1.1490   15.5052 F   0  0  0  0  0  0  0  0  0  0  0  0
   12.7724   -2.8110   16.0110 C   0  0  0  0  0  0  0  0  0  0  0  0
   12.0835   -2.2612   14.7328 C   0  0  0  0  0  0  0  0  0  0  0  0
   12.3808   -0.8046   14.4166 C   0  0  0  0  0  0  0  0  0  0  0  0
   11.8511    0.2053   15.1940 C   0  0  0  0  0  0  0  0  0  0  0  0
   12.3438    1.4994   15.0308 C   0  0  0  0  0  0  0  0  0  0  0  0
   13.3286    1.7649   14.0836 C   0  0  0  0  0  0  0  0  0  0  0  0
   13.7634    0.7245   13.3011 C   0  0  0  0  0  0  0  0  0  0  0  0
   13.3050   -0.5355   13.4524 N   0  0  0  0  0  0  0  0  0  0  0  0
   17.4009   -3.4668   16.1900 H   0  0  0  0  0  0  0  0  0  0  0  0
   18.0485   -4.1785   17.6540 H   0  0  0  0  0  0  0  0  0  0  0  0
   16.8508   -1.3442   17.6242 H   0  0  0  0  0  0  0  0  0  0  0  0
   18.5248   -1.6655   17.2118 H   0  0  0  0  0  0  0  0  0  0  0  0
   18.9693   -2.6194   19.4271 H   0  0  0  0  0  0  0  0  0  0  0  0
   17.2730   -2.5158   19.8776 H   0  0  0  0  0  0  0  0  0  0  0  0
   20.1099    0.1689   18.8817 H   0  0  0  0  0  0  0  0  0  0  0  0
   19.3818    2.3623   20.3611 H   0  0  0  0  0  0  0  0  0  0  0  0
   16.5666   -0.4381   21.0766 H   0  0  0  0  0  0  0  0  0  0  0  0
   14.0984   -2.6267   18.4871 H   0  0  0  0  0  0  0  0  0  0  0  0
   13.9322   -1.1283   16.6291 H   0  0  0  0  0  0  0  0  0  0  0  0
   14.7471   -2.0084   14.2509 H   0  0  0  0  0  0  0  0  0  0  0  0
   15.6997   -3.0933   15.1533 H   0  0  0  0  0  0  0  0  0  0  0  0
   12.0970   -2.6314   16.8499 H   0  0  0  0  0  0  0  0  0  0  0  0
   12.8515   -3.9004   15.9436 H   0  0  0  0  0  0  0  0  0  0  0  0
   10.9991   -2.3997   14.8220 H   0  0  0  0  0  0  0  0  0  0  0  0
   12.3844   -2.8557   13.8648 H   0  0  0  0  0  0  0  0  0  0  0  0
   11.0845   -0.0077   15.9255 H   0  0  0  0  0  0  0  0  0  0  0  0
   11.9565    2.3094   15.6430 H   0  0  0  0  0  0  0  0  0  0  0  0
   13.7213    2.7658   13.9468 H   0  0  0  0  0  0  0  0  0  0  0  0
   14.5103    0.8628   12.5262 H   0  0  0  0  0  0  0  0  0  0  0  0
  1  2  2  0
  2  3  2  0
  2  4  1  0
  4  5  1  0
  5  6  1  0
  6  7  1  0
  7  8  2  0
  8  9  1  0
  9 10  2  0
 10 11  1  0
  2 12  1  0
 12 13  1  0
 13 14  1  0
 14 15  1  0
 13 16  1  0
 16 17  1  0
 17 18  1  0
 18 19  2  0
 19 20  1  0
 20 21  2  0
 21 22  1  0
 22 23  2  0
 11  7  1  0
 23 18  1  0
  4 24  1  0
  4 25  1  0
  5 26  1  0
  5 27  1  0
  6 28  1  0
  6 29  1  0
  8 30  1  0
  9 31  1  0
 11 32  1  0
 12 33  1  0
 13 34  1  0
 14 35  1  0
 14 36  1  0
 16 37  1  0
 16 38  1  0
 17 39  1  0
 17 40  1  0
 19 41  1  0
 20 42  1  0
 21 43  1  0
 22 44  1  0
M  END
>  <Energy>  (223) 
-24.279839049907206

>  <compound_id>  (223) 
1569

>  <target_id>  (223) 
1

>  <reference_id>  (223) 
10

>  <inspiration_ids>  (223) 
[10, 111]

>  <energy_score>  (223) 
-19.525755667020313

>  <distance_score>  (223) 
1.5944909882713778

>  <path>  (223) 
/opt/xchem-fragalysis-2/maxwin/BulkDock/SCRATCH/505732/C1569-P10/C1569-P10.minimised.mol

>  <scratch_subdir>  (223) 
/opt/xchem-fragalysis-2/maxwin/BulkDock/SCRATCH/505732/C1569-P10

>  <fragmenstein_runtime>  (223) 
2.296985626220703

>  <fragmenstein_outcome>  (223) 
too moved

>  <fragmenstein_mode>  (223) 
expansion

>  <fragmenstein_error>  (223) 


$$$$
C1569-P111
     RDKit          3D

 44 45  0  0  0  0  0  0  0  0999 V2000
   15.9698   -4.4412   18.9720 O   0  0  0  0  0  0  0  0  0  0  0  0
   15.9425   -3.9498   17.6118 S   0  0  0  0  0  0  0  0  0  0  0  0
   15.6997   -4.8510   16.5097 O   0  0  0  0  0  0  0  0  0  0  0  0
   17.4823   -3.0868   17.2998 C   0  0  0  0  0  0  0  0  0  0  0  0
   17.5889   -1.7135   17.9395 C   0  0  0  0  0  0  0  0  0  0  0  0
   17.7889   -1.7756   19.4584 C   0  0  0  0  0  0  0  0  0  0  0  0
   17.8424   -0.4107   20.0545 C   0  0  0  0  0  0  0  0  0  0  0  0
   18.7546    0.6154   19.9333 C   0  0  0  0  0  0  0  0  0  0  0  0
   18.2391    1.6522   20.7311 C   0  0  0  0  0  0  0  0  0  0  0  0
   17.0902    1.3162   21.3205 N   0  0  0  0  0  0  0  0  0  0  0  0
   16.8797    0.0538   20.9120 N   0  0  0  0  0  0  0  0  0  0  0  0
   14.7366   -2.8089   17.6011 N   0  0  0  0  0  0  0  0  0  0  0  0
   14.1644   -2.1850   16.3774 C   0  0  0  0  0  0  0  0  0  0  0  0
   15.1650   -2.0423   15.2409 C   0  0  0  0  0  0  0  0  0  0  0  0
   15.9578   -0.9713   15.5391 F   0  0  0  0  0  0  0  0  0  0  0  0
   12.8337   -2.8515   16.0002 C   0  0  0  0  0  0  0  0  0  0  0  0
   12.1166   -2.2830   14.7463 C   0  0  0  0  0  0  0  0  0  0  0  0
   12.3854   -0.8138   14.4611 C   0  0  0  0  0  0  0  0  0  0  0  0
   11.9789    0.1612   15.3523 C   0  0  0  0  0  0  0  0  0  0  0  0
   12.4816    1.4527   15.2007 C   0  0  0  0  0  0  0  0  0  0  0  0
   13.3512    1.7520   14.1561 C   0  0  0  0  0  0  0  0  0  0  0  0
   13.6615    0.7494   13.2705 C   0  0  0  0  0  0  0  0  0  0  0  0
   13.1934   -0.5095   13.4066 N   0  0  0  0  0  0  0  0  0  0  0  0
   17.5999   -2.9994   16.2172 H   0  0  0  0  0  0  0  0  0  0  0  0
   18.2837   -3.7459   17.6519 H   0  0  0  0  0  0  0  0  0  0  0  0
   16.7123   -1.0983   17.7167 H   0  0  0  0  0  0  0  0  0  0  0  0
   18.4475   -1.1953   17.4929 H   0  0  0  0  0  0  0  0  0  0  0  0
   18.7211   -2.3052   19.6891 H   0  0  0  0  0  0  0  0  0  0  0  0
   16.9781   -2.3386   19.9307 H   0  0  0  0  0  0  0  0  0  0  0  0
   19.6614    0.6193   19.3454 H   0  0  0  0  0  0  0  0  0  0  0  0
   18.6513    2.6376   20.9055 H   0  0  0  0  0  0  0  0  0  0  0  0
   16.0571   -0.4318   21.2563 H   0  0  0  0  0  0  0  0  0  0  0  0
   14.1731   -2.7977   18.4515 H   0  0  0  0  0  0  0  0  0  0  0  0
   13.9358   -1.1653   16.7133 H   0  0  0  0  0  0  0  0  0  0  0  0
   15.8060   -2.9085   15.0922 H   0  0  0  0  0  0  0  0  0  0  0  0
   14.7462   -1.8696   14.2595 H   0  0  0  0  0  0  0  0  0  0  0  0
   12.1556   -2.7349   16.8525 H   0  0  0  0  0  0  0  0  0  0  0  0
   12.9594   -3.9333   15.8892 H   0  0  0  0  0  0  0  0  0  0  0  0
   11.0356   -2.4401   14.8442 H   0  0  0  0  0  0  0  0  0  0  0  0
   12.4237   -2.8575   13.8654 H   0  0  0  0  0  0  0  0  0  0  0  0
   11.3250   -0.0801   16.1785 H   0  0  0  0  0  0  0  0  0  0  0  0
   12.2008    2.2317   15.9051 H   0  0  0  0  0  0  0  0  0  0  0  0
   13.7529    2.7507   14.0291 H   0  0  0  0  0  0  0  0  0  0  0  0
   14.3132    0.9185   12.4196 H   0  0  0  0  0  0  0  0  0  0  0  0
  1  2  2  0
  2  3  2  0
  2  4  1  0
  4  5  1  0
  5  6  1  0
  6  7  1  0
  7  8  2  0
  8  9  1  0
  9 10  2  0
 10 11  1  0
  2 12  1  0
 12 13  1  0
 13 14  1  0
 14 15  1  0
 13 16  1  0
 16 17  1  0
 17 18  1  0
 18 19  2  0
 19 20  1  0
 20 21  2  0
 21 22  1  0
 22 23  2  0
 11  7  1  0
 23 18  1  0
  4 24  1  0
  4 25  1  0
  5 26  1  0
  5 27  1  0
  6 28  1  0
  6 29  1  0
  8 30  1  0
  9 31  1  0
 11 32  1  0
 12 33  1  0
 13 34  1  0
 14 35  1  0
 14 36  1  0
 16 37  1  0
 16 38  1  0
 17 39  1  0
 17 40  1  0
 19 41  1  0
 20 42  1  0
 21 43  1  0
 22 44  1  0
M  END
>  <Energy>  (224) 
-23.529677008647312

>  <compound_id>  (224) 
1569

>  <target_id>  (224) 
1

>  <reference_id>  (224) 
111

>  <inspiration_ids>  (224) 
[10, 111]

>  <energy_score>  (224) 
-18.775593625760017

>  <distance_score>  (224) 
1.5924203589453798

>  <path>  (224) 
/opt/xchem-fragalysis-2/maxwin/BulkDock/SCRATCH/505732/C1569-P111/C1569-P111.minimised.mol

>  <scratch_subdir>  (224) 
/opt/xchem-fragalysis-2/maxwin/BulkDock/SCRATCH/505732/C1569-P111

>  <fragmenstein_runtime>  (224) 
2.5271246433258057

>  <fragmenstein_outcome>  (224) 
too moved

>  <fragmenstein_mode>  (224) 
expansion

>  <fragmenstein_error>  (224) 


$$$$
C1570-P10
     RDKit          3D

 48 51  0  0  0  0  0  0  0  0999 V2000
   18.0653   -2.7099   16.1270 C   0  0  0  0  0  0  0  0  0  0  0  0
   17.3424   -3.9608   16.5874 C   0  0  0  0  0  0  0  0  0  0  0  0
   16.6465   -3.7854   18.2201 S   0  0  0  0  0  6  0  0  0  0  0  0
   15.9908   -5.0293   18.5720 O   0  0  0  0  0  0  0  0  0  0  0  0
   16.0631   -2.3670   18.3478 N   0  0  0  0  0  0  0  0  0  0  0  0
   14.7796   -1.9396   17.8202 N   0  0  0  0  0  0  0  0  0  0  0  0
   14.3605   -2.7827   16.7262 N   0  0  0  0  0  0  0  0  0  0  0  0
   13.5478   -1.9445   15.8410 C   0  0  0  0  0  0  0  0  0  0  0  0
   12.1896   -2.6261   15.6676 C   0  0  0  0  0  0  0  0  0  0  0  0
   11.3718   -2.1344   14.4901 C   0  0  0  0  0  0  0  0  0  0  0  0
   11.8507   -0.8012   13.9468 C   0  0  0  0  0  0  0  0  0  0  0  0
   13.3053   -0.8724   13.4996 C   0  0  0  0  0  0  0  0  0  0  0  0
   14.1977   -1.6727   14.4454 C   0  0  0  0  0  0  0  0  0  0  0  0
   15.3537   -0.9481   14.5840 F   0  0  0  0  0  0  0  0  0  0  0  0
   13.4205   -0.6553   16.5390 N   0  0  0  0  0  0  0  0  0  0  0  0
   14.6732   -0.5765   17.2810 C   0  0  0  0  0  0  0  0  0  0  0  0
   14.7062    0.8348   18.4540 S   0  0  0  0  0  0  0  0  0  0  0  0
   14.7803    2.1221   17.2790 C   0  0  0  0  0  0  0  0  0  0  0  0
   15.9792    2.6203   16.9230 C   0  0  0  0  0  0  0  0  0  0  0  0
   16.1018    3.3314   15.6626 C   0  0  0  0  0  0  0  0  0  0  0  0
   15.0861    3.3505   14.7787 C   0  0  0  0  0  0  0  0  0  0  0  0
   13.8270    2.8172   15.1525 C   0  0  0  0  0  0  0  0  0  0  0  0
   12.7009    2.5764   14.5142 N   0  0  0  0  0  0  0  0  0  0  0  0
   11.7466    2.2495   15.4485 N   0  0  0  0  0  0  0  0  0  0  0  0
   12.3395    2.2573   16.6167 C   0  0  0  0  0  0  0  0  0  0  0  0
   13.6880    2.3897   16.4562 N   0  0  0  0  0  0  0  0  0  0  0  0
   18.8279   -2.4062   16.8514 H   0  0  0  0  0  0  0  0  0  0  0  0
   18.5604   -2.8949   15.1685 H   0  0  0  0  0  0  0  0  0  0  0  0
   17.3791   -1.8712   15.9861 H   0  0  0  0  0  0  0  0  0  0  0  0
   16.5376   -4.2287   15.8976 H   0  0  0  0  0  0  0  0  0  0  0  0
   18.0367   -4.8056   16.6385 H   0  0  0  0  0  0  0  0  0  0  0  0
   17.7343   -3.7546   19.0245 H   0  0  0  0  0  0  0  0  0  0  0  0
   13.7913   -3.5256   17.1406 H   0  0  0  0  0  0  0  0  0  0  0  0
   12.3027   -3.7115   15.5653 H   0  0  0  0  0  0  0  0  0  0  0  0
   11.6075   -2.4973   16.5779 H   0  0  0  0  0  0  0  0  0  0  0  0
   10.3255   -2.0645   14.8068 H   0  0  0  0  0  0  0  0  0  0  0  0
   11.4225   -2.8871   13.6941 H   0  0  0  0  0  0  0  0  0  0  0  0
   11.7118   -0.0504   14.7225 H   0  0  0  0  0  0  0  0  0  0  0  0
   11.2343   -0.4390   13.1248 H   0  0  0  0  0  0  0  0  0  0  0  0
   13.6984    0.1412   13.3639 H   0  0  0  0  0  0  0  0  0  0  0  0
   13.3673   -1.3478   12.5152 H   0  0  0  0  0  0  0  0  0  0  0  0
   14.5131   -2.5898   13.9621 H   0  0  0  0  0  0  0  0  0  0  0  0
   13.4415    0.0765   15.8398 H   0  0  0  0  0  0  0  0  0  0  0  0
   15.5256   -0.3963   16.6175 H   0  0  0  0  0  0  0  0  0  0  0  0
   16.8949    2.3777   17.4563 H   0  0  0  0  0  0  0  0  0  0  0  0
   17.0698    3.7541   15.4077 H   0  0  0  0  0  0  0  0  0  0  0  0
   15.1909    3.8092   13.8015 H   0  0  0  0  0  0  0  0  0  0  0  0
   11.8728    2.1786   17.5791 H   0  0  0  0  0  0  0  0  0  0  0  0
  1  2  1  0
  2  3  1  0
  3  4  2  0
  3  5  2  0
  5  6  1  0
  6  7  1  0
  7  8  1  0
  8  9  1  0
  9 10  1  0
 10 11  1  0
 11 12  1  0
 12 13  1  0
 13 14  1  0
  8 15  1  0
 15 16  1  0
 16 17  1  0
 17 18  1  0
 18 19  2  0
 19 20  1  0
 20 21  2  0
 21 22  1  0
 22 23  2  0
 23 24  1  0
 24 25  2  0
 25 26  1  0
 16  6  1  0
 26 18  1  0
 13  8  1  0
 26 22  1  0
  1 27  1  0
  1 28  1  0
  1 29  1  0
  2 30  1  0
  2 31  1  0
  3 32  1  0
  7 33  1  0
  9 34  1  0
  9 35  1  0
 10 36  1  0
 10 37  1  0
 11 38  1  0
 11 39  1  0
 12 40  1  0
 12 41  1  0
 13 42  1  0
 15 43  1  0
 16 44  1  0
 19 45  1  0
 20 46  1  0
 21 47  1  0
 25 48  1  0
M  END
>  <Energy>  (225) 
69.105521528289174

>  <compound_id>  (225) 
1570

>  <target_id>  (225) 
1

>  <reference_id>  (225) 
10

>  <inspiration_ids>  (225) 
[10, 113]

>  <energy_score>  (225) 
-65.74481838753059

>  <distance_score>  (225) 
2.0585289144713736

>  <path>  (225) 
/opt/xchem-fragalysis-2/maxwin/BulkDock/SCRATCH/505732/C1570-P10/C1570-P10.minimised.mol

>  <scratch_subdir>  (225) 
/opt/xchem-fragalysis-2/maxwin/BulkDock/SCRATCH/505732/C1570-P10

>  <fragmenstein_runtime>  (225) 
3.1719841957092285

>  <fragmenstein_outcome>  (225) 
too moved

>  <fragmenstein_mode>  (225) 
expansion

>  <fragmenstein_error>  (225) 


$$$$
C1570-P113
     RDKit          3D

 48 51  0  0  0  0  0  0  0  0999 V2000
   17.9175   -2.5448   16.4682 C   0  0  0  0  0  0  0  0  0  0  0  0
   16.8572   -3.6147   16.6293 C   0  0  0  0  0  0  0  0  0  0  0  0
   16.0629   -3.4779   18.2242 S   0  0  0  0  0  6  0  0  0  0  0  0
   16.5962   -4.5351   19.0587 O   0  0  0  0  0  0  0  0  0  0  0  0
   14.5672   -3.1505   18.0440 N   0  0  0  0  0  0  0  0  0  0  0  0
   14.0883   -2.2651   17.0346 N   0  0  0  0  0  0  0  0  0  0  0  0
   12.7225   -2.4330   16.8006 N   0  0  0  0  0  0  0  0  0  0  0  0
   12.4631   -1.5415   15.6785 C   0  0  0  0  0  0  0  0  0  0  0  0
   11.0129   -1.0553   15.7199 C   0  0  0  0  0  0  0  0  0  0  0  0
   10.5744   -0.1696   14.5575 C   0  0  0  0  0  0  0  0  0  0  0  0
   11.5852   -0.0825   13.4259 C   0  0  0  0  0  0  0  0  0  0  0  0
   12.2620   -1.4112   13.1364 C   0  0  0  0  0  0  0  0  0  0  0  0
   12.7272   -2.2003   14.3269 C   0  0  0  0  0  0  0  0  0  0  0  0
   14.0855   -2.3408   14.1767 F   0  0  0  0  0  0  0  0  0  0  0  0
   13.4132   -0.4273   15.8277 N   0  0  0  0  0  0  0  0  0  0  0  0
   14.3684   -0.8418   16.8481 C   0  0  0  0  0  0  0  0  0  0  0  0
   14.2288    0.2901   18.2878 S   0  0  0  0  0  0  0  0  0  0  0  0
   14.5734    1.7889   17.4590 C   0  0  0  0  0  0  0  0  0  0  0  0
   15.8184    2.3017   17.5098 C   0  0  0  0  0  0  0  0  0  0  0  0
   16.2108    3.3260   16.5583 C   0  0  0  0  0  0  0  0  0  0  0  0
   15.3963    3.6760   15.5474 C   0  0  0  0  0  0  0  0  0  0  0  0
   14.0851    3.1407   15.4906 C   0  0  0  0  0  0  0  0  0  0  0  0
   13.1105    3.2331   14.6140 N   0  0  0  0  0  0  0  0  0  0  0  0
   11.9897    2.6746   15.1660 N   0  0  0  0  0  0  0  0  0  0  0  0
   12.3344    2.2027   16.3379 C   0  0  0  0  0  0  0  0  0  0  0  0
   13.6790    2.3262   16.5292 N   0  0  0  0  0  0  0  0  0  0  0  0
   18.6929   -2.6481   17.2344 H   0  0  0  0  0  0  0  0  0  0  0  0
   18.3949   -2.6275   15.4871 H   0  0  0  0  0  0  0  0  0  0  0  0
   17.4958   -1.5405   16.5597 H   0  0  0  0  0  0  0  0  0  0  0  0
   16.1051   -3.5252   15.8422 H   0  0  0  0  0  0  0  0  0  0  0  0
   17.3001   -4.6130   16.5640 H   0  0  0  0  0  0  0  0  0  0  0  0
   16.5773   -2.3476   18.7631 H   0  0  0  0  0  0  0  0  0  0  0  0
   12.5263   -3.4107   16.6003 H   0  0  0  0  0  0  0  0  0  0  0  0
   10.3475   -1.9261   15.7394 H   0  0  0  0  0  0  0  0  0  0  0  0
   10.8237   -0.5018   16.6381 H   0  0  0  0  0  0  0  0  0  0  0  0
   10.3332    0.8342   14.9174 H   0  0  0  0  0  0  0  0  0  0  0  0
    9.6150   -0.5432   14.1912 H   0  0  0  0  0  0  0  0  0  0  0  0
   12.3576    0.6532   13.6643 H   0  0  0  0  0  0  0  0  0  0  0  0
   11.0998    0.3036   12.5254 H   0  0  0  0  0  0  0  0  0  0  0  0
   13.0999   -1.2516   12.4479 H   0  0  0  0  0  0  0  0  0  0  0  0
   11.5559   -2.0798   12.6520 H   0  0  0  0  0  0  0  0  0  0  0  0
   12.2599   -3.1888   14.2935 H   0  0  0  0  0  0  0  0  0  0  0  0
   13.9464   -0.3610   14.9603 H   0  0  0  0  0  0  0  0  0  0  0  0
   15.3852   -0.7338   16.4588 H   0  0  0  0  0  0  0  0  0  0  0  0
   16.5886    1.9017   18.1633 H   0  0  0  0  0  0  0  0  0  0  0  0
   17.2089    3.7469   16.6411 H   0  0  0  0  0  0  0  0  0  0  0  0
   15.6960    4.4005   14.7982 H   0  0  0  0  0  0  0  0  0  0  0  0
   11.6730    1.7542   17.0451 H   0  0  0  0  0  0  0  0  0  0  0  0
  1  2  1  0
  2  3  1  0
  3  4  2  0
  3  5  2  0
  5  6  1  0
  6  7  1  0
  7  8  1  0
  8  9  1  0
  9 10  1  0
 10 11  1  0
 11 12  1  0
 12 13  1  0
 13 14  1  0
  8 15  1  0
 15 16  1  0
 16 17  1  0
 17 18  1  0
 18 19  2  0
 19 20  1  0
 20 21  2  0
 21 22  1  0
 22 23  2  0
 23 24  1  0
 24 25  2  0
 25 26  1  0
 16  6  1  0
 26 18  1  0
 13  8  1  0
 26 22  1  0
  1 27  1  0
  1 28  1  0
  1 29  1  0
  2 30  1  0
  2 31  1  0
  3 32  1  0
  7 33  1  0
  9 34  1  0
  9 35  1  0
 10 36  1  0
 10 37  1  0
 11 38  1  0
 11 39  1  0
 12 40  1  0
 12 41  1  0
 13 42  1  0
 15 43  1  0
 16 44  1  0
 19 45  1  0
 20 46  1  0
 21 47  1  0
 25 48  1  0
M  END
>  <Energy>  (226) 
66.966978961572195

>  <compound_id>  (226) 
1570

>  <target_id>  (226) 
1

>  <reference_id>  (226) 
113

>  <inspiration_ids>  (226) 
[10, 113]

>  <energy_score>  (226) 
-67.88336095424481

>  <distance_score>  (226) 
1.8405116870953786

>  <path>  (226) 
/opt/xchem-fragalysis-2/maxwin/BulkDock/SCRATCH/505732/C1570-P113/C1570-P113.minimised.mol

>  <scratch_subdir>  (226) 
/opt/xchem-fragalysis-2/maxwin/BulkDock/SCRATCH/505732/C1570-P113

>  <fragmenstein_runtime>  (226) 
2.686354160308838

>  <fragmenstein_outcome>  (226) 
too moved

>  <fragmenstein_mode>  (226) 
expansion

>  <fragmenstein_error>  (226) 


$$$$
C1571-P10
     RDKit          3D

 48 50  0  0  0  0  0  0  0  0999 V2000
   15.1579   -0.5417   16.6081 C   0  0  0  0  0  0  0  0  0  0  0  0
   14.2642   -1.4827   15.7916 C   0  0  0  0  0  0  0  0  0  0  0  0
   13.5715   -2.3747   16.8307 C   0  0  0  0  0  0  0  0  0  0  0  0
   12.6496   -3.4210   16.2592 C   0  0  0  0  0  0  0  0  0  0  0  0
   11.6712   -2.8203   15.2724 C   0  0  0  0  0  0  0  0  0  0  0  0
   12.3733   -1.9694   14.2231 C   0  0  0  0  0  0  0  0  0  0  0  0
   13.2387   -0.8082   14.8032 C   0  0  0  0  0  0  0  0  0  0  0  0
   12.3756    0.1475   15.4611 N   0  0  0  0  0  0  0  0  0  0  0  0
   11.3277    0.8496   14.9545 C   0  0  0  0  0  0  0  0  0  0  0  0
   10.4918    1.2935   15.7422 O   0  0  0  0  0  0  0  0  0  0  0  0
   11.2310    1.1226   13.4688 C   0  0  0  0  0  0  0  0  0  0  0  0
   12.0666    2.2971   12.9318 C   0  0  0  0  0  0  0  0  0  0  0  0
   12.3500    1.9420   11.5647 O   0  0  0  0  0  0  0  0  0  0  0  0
   11.2920    3.6338   12.8898 C   0  0  0  0  0  0  0  0  0  0  0  0
   10.2463    3.9449   13.7725 C   0  0  0  0  0  0  0  0  0  0  0  0
    9.5622    5.1620   13.6866 C   0  0  0  0  0  0  0  0  0  0  0  0
    9.9254    6.1063   12.7327 C   0  0  0  0  0  0  0  0  0  0  0  0
   10.9838    5.8424   11.8721 C   0  0  0  0  0  0  0  0  0  0  0  0
   11.6629    4.6250   11.9547 C   0  0  0  0  0  0  0  0  0  0  0  0
   13.3796    2.5384   13.6678 C   0  0  0  0  0  0  0  0  0  0  0  0
   14.6333    1.2795   13.5398 S   0  0  0  0  0  0  0  0  0  0  0  0
   15.5223    1.4754   14.6604 O   0  0  0  0  0  0  0  0  0  0  0  0
   15.1798    1.3047   12.1991 O   0  0  0  0  0  0  0  0  0  0  0  0
   13.9131   -0.2016   13.6620 N   0  0  0  0  0  0  0  0  0  0  0  0
   14.6335    0.3647   16.9237 H   0  0  0  0  0  0  0  0  0  0  0  0
   15.5449   -1.0243   17.5136 H   0  0  0  0  0  0  0  0  0  0  0  0
   16.0483   -0.2740   16.0356 H   0  0  0  0  0  0  0  0  0  0  0  0
   14.9299   -2.1288   15.2010 H   0  0  0  0  0  0  0  0  0  0  0  0
   14.3108   -2.8756   17.4679 H   0  0  0  0  0  0  0  0  0  0  0  0
   12.9965   -1.7146   17.4680 H   0  0  0  0  0  0  0  0  0  0  0  0
   13.2607   -4.1922   15.7981 H   0  0  0  0  0  0  0  0  0  0  0  0
   12.1113   -3.9295   17.0608 H   0  0  0  0  0  0  0  0  0  0  0  0
   11.1018   -3.6152   14.7812 H   0  0  0  0  0  0  0  0  0  0  0  0
   10.9397   -2.2017   15.8024 H   0  0  0  0  0  0  0  0  0  0  0  0
   11.6071   -1.6018   13.5474 H   0  0  0  0  0  0  0  0  0  0  0  0
   13.0003   -2.6034   13.5911 H   0  0  0  0  0  0  0  0  0  0  0  0
   12.3094    0.0465   16.4617 H   0  0  0  0  0  0  0  0  0  0  0  0
   10.1706    1.2438   13.2222 H   0  0  0  0  0  0  0  0  0  0  0  0
   11.4983    0.2269   12.9174 H   0  0  0  0  0  0  0  0  0  0  0  0
   11.6822    2.3274   10.9753 H   0  0  0  0  0  0  0  0  0  0  0  0
    9.9390    3.2662   14.5623 H   0  0  0  0  0  0  0  0  0  0  0  0
    8.7527    5.3796   14.3809 H   0  0  0  0  0  0  0  0  0  0  0  0
    9.3970    7.0550   12.6741 H   0  0  0  0  0  0  0  0  0  0  0  0
   11.2891    6.5879   11.1411 H   0  0  0  0  0  0  0  0  0  0  0  0
   12.5039    4.4620   11.2793 H   0  0  0  0  0  0  0  0  0  0  0  0
   13.8835    3.4307   13.2714 H   0  0  0  0  0  0  0  0  0  0  0  0
   13.2133    2.7333   14.7334 H   0  0  0  0  0  0  0  0  0  0  0  0
   14.2175   -0.8253   12.9121 H   0  0  0  0  0  0  0  0  0  0  0  0
  1  2  1  0
  2  3  1  0
  3  4  1  0
  4  5  1  0
  5  6  1  0
  6  7  1  0
  7  8  1  0
  8  9  1  0
  9 10  2  0
  9 11  1  0
 11 12  1  0
 12 13  1  0
 12 14  1  0
 14 15  2  0
 15 16  1  0
 16 17  2  0
 17 18  1  0
 18 19  2  0
 12 20  1  0
 20 21  1  0
 21 22  2  0
 21 23  2  0
 21 24  1  0
  7  2  1  0
 19 14  1  0
 24  7  1  0
  1 25  1  0
  1 26  1  0
  1 27  1  0
  2 28  1  0
  3 29  1  0
  3 30  1  0
  4 31  1  0
  4 32  1  0
  5 33  1  0
  5 34  1  0
  6 35  1  0
  6 36  1  0
  8 37  1  0
 11 38  1  0
 11 39  1  0
 13 40  1  0
 15 41  1  0
 16 42  1  0
 17 43  1  0
 18 44  1  0
 19 45  1  0
 20 46  1  0
 20 47  1  0
 24 48  1  0
M  END
>  <Energy>  (227) 
-95.393088647994446

>  <compound_id>  (227) 
1571

>  <target_id>  (227) 
1

>  <reference_id>  (227) 
10

>  <inspiration_ids>  (227) 
[10, 114]

>  <energy_score>  (227) 
-82.66811344973794

>  <distance_score>  (227) 
1.4184971692902106

>  <path>  (227) 
/opt/xchem-fragalysis-2/maxwin/BulkDock/SCRATCH/505732/C1571-P10/C1571-P10.minimised.mol

>  <scratch_subdir>  (227) 
/opt/xchem-fragalysis-2/maxwin/BulkDock/SCRATCH/505732/C1571-P10

>  <fragmenstein_runtime>  (227) 
4.868932723999023

>  <fragmenstein_outcome>  (227) 
too moved

>  <fragmenstein_mode>  (227) 
expansion

>  <fragmenstein_error>  (227) 


$$$$
C1571-P114
     RDKit          3D

 48 50  0  0  0  0  0  0  0  0999 V2000
   14.8732   -0.4082   16.9044 C   0  0  0  0  0  0  0  0  0  0  0  0
   14.1887   -1.4875   16.0562 C   0  0  0  0  0  0  0  0  0  0  0  0
   13.7975   -2.6142   17.0410 C   0  0  0  0  0  0  0  0  0  0  0  0
   12.9897   -3.7469   16.4437 C   0  0  0  0  0  0  0  0  0  0  0  0
   11.8473   -3.2347   15.5934 C   0  0  0  0  0  0  0  0  0  0  0  0
   12.3387   -2.2563   14.5448 C   0  0  0  0  0  0  0  0  0  0  0  0
   12.9956   -0.9921   15.1669 C   0  0  0  0  0  0  0  0  0  0  0  0
   11.9975   -0.2990   15.9516 N   0  0  0  0  0  0  0  0  0  0  0  0
   10.7542    0.0432   15.5069 C   0  0  0  0  0  0  0  0  0  0  0  0
    9.8020   -0.1561   16.2651 O   0  0  0  0  0  0  0  0  0  0  0  0
   10.6073    0.6662   14.1383 C   0  0  0  0  0  0  0  0  0  0  0  0
   11.1521    2.0946   13.9572 C   0  0  0  0  0  0  0  0  0  0  0  0
   11.1585    2.2857   12.5155 O   0  0  0  0  0  0  0  0  0  0  0  0
   10.2084    3.1929   14.4891 C   0  0  0  0  0  0  0  0  0  0  0  0
    9.5826    3.1068   15.7433 C   0  0  0  0  0  0  0  0  0  0  0  0
    8.6930    4.0941   16.1792 C   0  0  0  0  0  0  0  0  0  0  0  0
    8.4379    5.2100   15.3902 C   0  0  0  0  0  0  0  0  0  0  0  0
    9.0822    5.3476   14.1674 C   0  0  0  0  0  0  0  0  0  0  0  0
    9.9615    4.3556   13.7266 C   0  0  0  0  0  0  0  0  0  0  0  0
   12.5251    2.3486   14.5859 C   0  0  0  0  0  0  0  0  0  0  0  0
   13.8493    1.3747   13.9125 S   0  0  0  0  0  0  0  0  0  0  0  0
   15.0407    1.6080   14.6881 O   0  0  0  0  0  0  0  0  0  0  0  0
   13.8554    1.6292   12.4839 O   0  0  0  0  0  0  0  0  0  0  0  0
   13.4405   -0.2143   14.0173 N   0  0  0  0  0  0  0  0  0  0  0  0
   14.1663    0.3268   17.2996 H   0  0  0  0  0  0  0  0  0  0  0  0
   15.4069   -0.8419   17.7584 H   0  0  0  0  0  0  0  0  0  0  0  0
   15.6388    0.1093   16.3260 H   0  0  0  0  0  0  0  0  0  0  0  0
   14.9532   -1.9092   15.3873 H   0  0  0  0  0  0  0  0  0  0  0  0
   14.7041   -3.0378   17.4928 H   0  0  0  0  0  0  0  0  0  0  0  0
   13.2284   -2.1888   17.8660 H   0  0  0  0  0  0  0  0  0  0  0  0
   13.6611   -4.3738   15.8557 H   0  0  0  0  0  0  0  0  0  0  0  0
   12.6006   -4.3829   17.2449 H   0  0  0  0  0  0  0  0  0  0  0  0
   11.3133   -4.0530   15.1124 H   0  0  0  0  0  0  0  0  0  0  0  0
   11.1100   -2.7453   16.2275 H   0  0  0  0  0  0  0  0  0  0  0  0
   11.4950   -1.9963   13.9060 H   0  0  0  0  0  0  0  0  0  0  0  0
   13.0497   -2.7440   13.8738 H   0  0  0  0  0  0  0  0  0  0  0  0
   11.9142   -0.6873   16.8809 H   0  0  0  0  0  0  0  0  0  0  0  0
    9.5483    0.6125   13.8764 H   0  0  0  0  0  0  0  0  0  0  0  0
   11.0694    0.0163   13.3921 H   0  0  0  0  0  0  0  0  0  0  0  0
   12.0417    2.0473   12.1581 H   0  0  0  0  0  0  0  0  0  0  0  0
    9.7535    2.2735   16.4155 H   0  0  0  0  0  0  0  0  0  0  0  0
    8.1921    3.9816   17.1374 H   0  0  0  0  0  0  0  0  0  0  0  0
    7.7422    5.9723   15.7307 H   0  0  0  0  0  0  0  0  0  0  0  0
    8.8996    6.2257   13.5528 H   0  0  0  0  0  0  0  0  0  0  0  0
   10.4519    4.5047   12.7658 H   0  0  0  0  0  0  0  0  0  0  0  0
   12.8388    3.3829   14.3871 H   0  0  0  0  0  0  0  0  0  0  0  0
   12.5303    2.2276   15.6738 H   0  0  0  0  0  0  0  0  0  0  0  0
   13.9248   -0.7541   13.2958 H   0  0  0  0  0  0  0  0  0  0  0  0
  1  2  1  0
  2  3  1  0
  3  4  1  0
  4  5  1  0
  5  6  1  0
  6  7  1  0
  7  8  1  0
  8  9  1  0
  9 10  2  0
  9 11  1  0
 11 12  1  0
 12 13  1  0
 12 14  1  0
 14 15  2  0
 15 16  1  0
 16 17  2  0
 17 18  1  0
 18 19  2  0
 12 20  1  0
 20 21  1  0
 21 22  2  0
 21 23  2  0
 21 24  1  0
  7  2  1  0
 19 14  1  0
 24  7  1  0
  1 25  1  0
  1 26  1  0
  1 27  1  0
  2 28  1  0
  3 29  1  0
  3 30  1  0
  4 31  1  0
  4 32  1  0
  5 33  1  0
  5 34  1  0
  6 35  1  0
  6 36  1  0
  8 37  1  0
 11 38  1  0
 11 39  1  0
 13 40  1  0
 15 41  1  0
 16 42  1  0
 17 43  1  0
 18 44  1  0
 19 45  1  0
 20 46  1  0
 20 47  1  0
 24 48  1  0
M  END
>  <Energy>  (228) 
-96.303507942591949

>  <compound_id>  (228) 
1571

>  <target_id>  (228) 
1

>  <reference_id>  (228) 
114

>  <inspiration_ids>  (228) 
[10, 114]

>  <energy_score>  (228) 
-83.57853274433427

>  <distance_score>  (228) 
1.2437750922261226

>  <path>  (228) 
/opt/xchem-fragalysis-2/maxwin/BulkDock/SCRATCH/505732/C1571-P114/C1571-P114.minimised.mol

>  <scratch_subdir>  (228) 
/opt/xchem-fragalysis-2/maxwin/BulkDock/SCRATCH/505732/C1571-P114

>  <fragmenstein_runtime>  (228) 
5.3647661209106445

>  <fragmenstein_outcome>  (228) 
too moved

>  <fragmenstein_mode>  (228) 
expansion

>  <fragmenstein_error>  (228) 


$$$$
C1574-P10
     RDKit          3D

 47 48  0  0  0  0  0  0  0  0999 V2000
   14.8257    3.0806   11.8521 C   0  0  0  0  0  0  0  0  0  0  0  0
   15.6757    1.8313   11.7525 C   0  0  0  0  0  0  0  0  0  0  0  0
   16.5299    1.7451   10.9103 O   0  0  0  0  0  0  0  0  0  0  0  0
   15.2790    0.9140   12.7645 N   0  0  0  0  0  0  0  0  0  0  0  0
   14.1814    0.0104   12.2515 C   0  0  0  0  0  0  0  0  0  0  0  0
   13.6363   -0.9489   13.3043 C   0  0  0  0  0  0  0  0  0  0  0  0
   12.4277   -0.4145   14.0775 C   0  0  0  0  0  0  0  0  0  0  0  0
   12.5386    0.9616   14.4097 O   0  0  0  0  0  0  0  0  0  0  0  0
   14.9219   -1.2402   14.0340 C   0  0  0  0  0  0  0  0  0  0  0  0
   14.9484   -0.9763   15.5219 C   0  0  0  0  0  0  0  0  0  0  0  0
   14.9811    0.3362   16.0205 C   0  0  0  0  0  0  0  0  0  0  0  0
   14.9569    0.5820   17.3885 C   0  0  0  0  0  0  0  0  0  0  0  0
   14.8989   -0.4853   18.2692 C   0  0  0  0  0  0  0  0  0  0  0  0
   14.8480   -0.2411   19.5820 F   0  0  0  0  0  0  0  0  0  0  0  0
   14.8713   -1.7939   17.8174 C   0  0  0  0  0  0  0  0  0  0  0  0
   14.9220   -2.0361   16.4471 C   0  0  0  0  0  0  0  0  0  0  0  0
   14.9051   -3.3265   15.9918 O   0  0  0  0  0  0  0  0  0  0  0  0
   16.1287   -4.0036   16.2866 C   0  0  0  0  0  0  0  0  0  0  0  0
   16.0499   -4.9422   17.5117 C   0  0  0  0  0  0  0  0  0  0  0  0
   14.9878   -5.2939   17.9561 O   0  0  0  0  0  0  0  0  0  0  0  0
   17.3825   -5.2126   17.9620 N   0  0  0  0  0  0  0  0  0  0  0  0
   17.9150   -6.4544   17.2944 C   0  0  0  0  0  0  0  0  0  0  0  0
   17.8738   -5.9189   19.1807 C   0  0  0  0  0  0  0  0  0  0  0  0
   15.8641   -0.3983   13.1771 C   0  0  0  0  0  0  0  0  0  0  0  0
   15.4805    3.9566   11.8617 H   0  0  0  0  0  0  0  0  0  0  0  0
   14.2246    3.0947   12.7660 H   0  0  0  0  0  0  0  0  0  0  0  0
   14.1581    3.1280   10.9875 H   0  0  0  0  0  0  0  0  0  0  0  0
   13.3737    0.6714   11.9066 H   0  0  0  0  0  0  0  0  0  0  0  0
   14.4934   -0.5050   11.3245 H   0  0  0  0  0  0  0  0  0  0  0  0
   13.3031   -1.8708   12.8104 H   0  0  0  0  0  0  0  0  0  0  0  0
   11.5369   -0.5062   13.4502 H   0  0  0  0  0  0  0  0  0  0  0  0
   12.2429   -0.9959   14.9867 H   0  0  0  0  0  0  0  0  0  0  0  0
   11.7246    1.1920   14.8895 H   0  0  0  0  0  0  0  0  0  0  0  0
   15.2205   -2.2814   13.8629 H   0  0  0  0  0  0  0  0  0  0  0  0
   15.0001    1.1889   15.3442 H   0  0  0  0  0  0  0  0  0  0  0  0
   14.9726    1.5979   17.7691 H   0  0  0  0  0  0  0  0  0  0  0  0
   14.7958   -2.6039   18.5353 H   0  0  0  0  0  0  0  0  0  0  0  0
   16.3511   -4.6315   15.4173 H   0  0  0  0  0  0  0  0  0  0  0  0
   16.9691   -3.3044   16.3981 H   0  0  0  0  0  0  0  0  0  0  0  0
   17.7572   -6.3015   16.2167 H   0  0  0  0  0  0  0  0  0  0  0  0
   19.0046   -6.5883   17.3714 H   0  0  0  0  0  0  0  0  0  0  0  0
   17.3356   -7.3669   17.5053 H   0  0  0  0  0  0  0  0  0  0  0  0
   18.9674   -5.9985   19.2602 H   0  0  0  0  0  0  0  0  0  0  0  0
   17.3214   -6.8341   19.4427 H   0  0  0  0  0  0  0  0  0  0  0  0
   17.6002   -5.2323   19.9952 H   0  0  0  0  0  0  0  0  0  0  0  0
   16.2657   -0.9413   12.3027 H   0  0  0  0  0  0  0  0  0  0  0  0
   16.7693   -0.1421   13.7453 H   0  0  0  0  0  0  0  0  0  0  0  0
  1  2  1  0
  2  3  2  0
  2  4  1  0
  4  5  1  0
  5  6  1  0
  6  7  1  0
  7  8  1  0
  6  9  1  0
  9 10  1  0
 10 11  2  0
 11 12  1  0
 12 13  2  0
 13 14  1  0
 13 15  1  0
 15 16  2  0
 16 17  1  0
 17 18  1  0
 18 19  1  0
 19 20  2  0
 19 21  1  0
 21 22  1  0
 21 23  1  0
  9 24  1  0
 24  4  1  0
 16 10  1  0
  1 25  1  0
  1 26  1  0
  1 27  1  0
  5 28  1  0
  5 29  1  0
  6 30  1  0
  7 31  1  0
  7 32  1  0
  8 33  1  0
  9 34  1  0
 11 35  1  0
 12 36  1  0
 15 37  1  0
 18 38  1  0
 18 39  1  0
 22 40  1  0
 22 41  1  0
 22 42  1  0
 23 43  1  0
 23 44  1  0
 23 45  1  0
 24 46  1  0
 24 47  1  0
M  END
>  <Energy>  (229) 
170.56035044734301

>  <compound_id>  (229) 
1574

>  <target_id>  (229) 
1

>  <reference_id>  (229) 
10

>  <inspiration_ids>  (229) 
[10, 120]

>  <energy_score>  (229) 
104.5231586206279

>  <distance_score>  (229) 
3.0800959921424065

>  <path>  (229) 
/opt/xchem-fragalysis-2/maxwin/BulkDock/SCRATCH/505732/C1574-P10/C1574-P10.minimised.mol

>  <scratch_subdir>  (229) 
/opt/xchem-fragalysis-2/maxwin/BulkDock/SCRATCH/505732/C1574-P10

>  <fragmenstein_runtime>  (229) 
5.892522811889648

>  <fragmenstein_outcome>  (229) 
too moved

>  <fragmenstein_mode>  (229) 
expansion

>  <fragmenstein_error>  (229) 


$$$$
C1574-P120
     RDKit          3D

 47 48  0  0  0  0  0  0  0  0999 V2000
   13.3799    4.8417   10.9127 C   0  0  0  0  0  0  0  0  0  0  0  0
   14.2141    3.6063   11.1794 C   0  0  0  0  0  0  0  0  0  0  0  0
   14.9695    3.1941   10.3391 O   0  0  0  0  0  0  0  0  0  0  0  0
   13.9338    3.1240   12.4894 N   0  0  0  0  0  0  0  0  0  0  0  0
   12.7885    2.1394   12.4516 C   0  0  0  0  0  0  0  0  0  0  0  0
   12.3561    1.7318   13.8532 C   0  0  0  0  0  0  0  0  0  0  0  0
   11.4688    0.4996   13.8455 C   0  0  0  0  0  0  0  0  0  0  0  0
   10.2905    0.8089   13.1097 O   0  0  0  0  0  0  0  0  0  0  0  0
   13.7128    1.6461   14.4954 C   0  0  0  0  0  0  0  0  0  0  0  0
   14.0449    0.4003   15.2894 C   0  0  0  0  0  0  0  0  0  0  0  0
   13.9598    0.5009   16.6927 C   0  0  0  0  0  0  0  0  0  0  0  0
   14.2774   -0.5779   17.5107 C   0  0  0  0  0  0  0  0  0  0  0  0
   14.6487   -1.7780   16.9327 C   0  0  0  0  0  0  0  0  0  0  0  0
   14.9442   -2.8213   17.7153 F   0  0  0  0  0  0  0  0  0  0  0  0
   14.7202   -1.9204   15.5559 C   0  0  0  0  0  0  0  0  0  0  0  0
   14.4354   -0.8317   14.7292 C   0  0  0  0  0  0  0  0  0  0  0  0
   14.4572   -0.9309   13.3646 O   0  0  0  0  0  0  0  0  0  0  0  0
   15.5471   -1.6606   12.8049 C   0  0  0  0  0  0  0  0  0  0  0  0
   16.9789   -1.1372   13.1036 C   0  0  0  0  0  0  0  0  0  0  0  0
   17.1554   -0.0248   13.5268 O   0  0  0  0  0  0  0  0  0  0  0  0
   17.9199   -2.1452   12.7146 N   0  0  0  0  0  0  0  0  0  0  0  0
   18.2523   -3.0272   13.8902 C   0  0  0  0  0  0  0  0  0  0  0  0
   19.4064   -2.0985   12.6054 C   0  0  0  0  0  0  0  0  0  0  0  0
   14.5672    2.0160   13.2849 C   0  0  0  0  0  0  0  0  0  0  0  0
   14.0349    5.6445   10.5628 H   0  0  0  0  0  0  0  0  0  0  0  0
   12.6360    4.6110   10.1454 H   0  0  0  0  0  0  0  0  0  0  0  0
   12.8642    5.1897   11.8126 H   0  0  0  0  0  0  0  0  0  0  0  0
   12.9963    1.2965   11.7689 H   0  0  0  0  0  0  0  0  0  0  0  0
   11.9498    2.6625   11.9688 H   0  0  0  0  0  0  0  0  0  0  0  0
   11.7938    2.5662   14.2958 H   0  0  0  0  0  0  0  0  0  0  0  0
   11.9471   -0.3559   13.3655 H   0  0  0  0  0  0  0  0  0  0  0  0
   11.1721    0.2186   14.8607 H   0  0  0  0  0  0  0  0  0  0  0  0
    9.8010   -0.0399   12.9833 H   0  0  0  0  0  0  0  0  0  0  0  0
   13.7987    2.5014   15.1837 H   0  0  0  0  0  0  0  0  0  0  0  0
   13.6684    1.4405   17.1612 H   0  0  0  0  0  0  0  0  0  0  0  0
   14.2463   -0.4856   18.5913 H   0  0  0  0  0  0  0  0  0  0  0  0
   14.9922   -2.8903   15.1632 H   0  0  0  0  0  0  0  0  0  0  0  0
   15.4549   -2.7213   13.0466 H   0  0  0  0  0  0  0  0  0  0  0  0
   15.4270   -1.5898   11.7165 H   0  0  0  0  0  0  0  0  0  0  0  0
   18.7074   -2.4942   14.7400 H   0  0  0  0  0  0  0  0  0  0  0  0
   18.7533   -3.9725   13.6325 H   0  0  0  0  0  0  0  0  0  0  0  0
   17.2865   -3.3590   14.2962 H   0  0  0  0  0  0  0  0  0  0  0  0
   19.8768   -3.0425   12.2952 H   0  0  0  0  0  0  0  0  0  0  0  0
   19.5738   -1.4280   11.7498 H   0  0  0  0  0  0  0  0  0  0  0  0
   19.9181   -1.5728   13.4258 H   0  0  0  0  0  0  0  0  0  0  0  0
   14.8869    1.2095   12.6124 H   0  0  0  0  0  0  0  0  0  0  0  0
   15.5188    2.4344   13.6420 H   0  0  0  0  0  0  0  0  0  0  0  0
  1  2  1  0
  2  3  2  0
  2  4  1  0
  4  5  1  0
  5  6  1  0
  6  7  1  0
  7  8  1  0
  6  9  1  0
  9 10  1  0
 10 11  2  0
 11 12  1  0
 12 13  2  0
 13 14  1  0
 13 15  1  0
 15 16  2  0
 16 17  1  0
 17 18  1  0
 18 19  1  0
 19 20  2  0
 19 21  1  0
 21 22  1  0
 21 23  1  0
  9 24  1  0
 24  4  1  0
 16 10  1  0
  1 25  1  0
  1 26  1  0
  1 27  1  0
  5 28  1  0
  5 29  1  0
  6 30  1  0
  7 31  1  0
  7 32  1  0
  8 33  1  0
  9 34  1  0
 11 35  1  0
 12 36  1  0
 15 37  1  0
 18 38  1  0
 18 39  1  0
 22 40  1  0
 22 41  1  0
 22 42  1  0
 23 43  1  0
 23 44  1  0
 23 45  1  0
 24 46  1  0
 24 47  1  0
M  END
>  <Energy>  (230) 
164.92165026340132

>  <compound_id>  (230) 
1574

>  <target_id>  (230) 
1

>  <reference_id>  (230) 
120

>  <inspiration_ids>  (230) 
[10, 120]

>  <energy_score>  (230) 
98.88445843668384

>  <distance_score>  (230) 
3.4720664479092775

>  <path>  (230) 
/opt/xchem-fragalysis-2/maxwin/BulkDock/SCRATCH/505732/C1574-P120/C1574-P120.minimised.mol

>  <scratch_subdir>  (230) 
/opt/xchem-fragalysis-2/maxwin/BulkDock/SCRATCH/505732/C1574-P120

>  <fragmenstein_runtime>  (230) 
5.289708375930786

>  <fragmenstein_outcome>  (230) 
too moved

>  <fragmenstein_mode>  (230) 
expansion

>  <fragmenstein_error>  (230) 


$$$$
C1581-P12
     RDKit          3D

 56 58  0  0  0  0  0  0  0  0999 V2000
   17.1868   -4.1300   15.5685 C   0  0  0  0  0  0  0  0  0  0  0  0
   17.5373   -2.7069   15.9803 C   0  0  0  0  0  0  0  0  0  0  0  0
   17.4487   -1.7058   14.8270 C   0  0  0  0  0  0  0  0  0  0  0  0
   16.0425   -1.5292   14.3080 C   0  0  0  0  0  0  0  0  0  0  0  0
   15.8008   -2.0726   13.0295 C   0  0  0  0  0  0  0  0  0  0  0  0
   14.5202   -2.1553   12.5039 C   0  0  0  0  0  0  0  0  0  0  0  0
   13.4424   -1.7660   13.2801 C   0  0  0  0  0  0  0  0  0  0  0  0
   13.6668   -1.1686   14.5096 C   0  0  0  0  0  0  0  0  0  0  0  0
   12.5802   -0.7592   15.2445 O   0  0  0  0  0  0  0  0  0  0  0  0
   14.9687   -0.9424   15.0105 C   0  0  0  0  0  0  0  0  0  0  0  0
   15.0415   -0.0690   16.2309 C   0  0  0  0  0  0  0  0  0  0  0  0
   16.3145    0.8037   16.8070 C   0  0  0  0  0  0  0  0  0  0  0  0
   16.3720    0.9447   18.2829 N   0  0  0  0  0  0  0  0  0  0  0  0
   16.0881    1.9244   19.2064 C   0  0  0  0  0  0  0  0  0  0  0  0
   14.6914    1.8219   19.7566 C   0  0  0  0  0  0  0  0  0  0  0  0
   16.8806    2.7662   19.6067 O   0  0  0  0  0  0  0  0  0  0  0  0
   15.9629    1.6285   16.6513 C   0  0  0  0  0  0  0  0  0  0  0  0
   14.5550    1.2878   16.0413 C   0  0  0  0  0  0  0  0  0  0  0  0
   14.2491    1.9643   14.6842 C   0  0  0  0  0  0  0  0  0  0  0  0
   14.3366    3.3766   14.9287 O   0  0  0  0  0  0  0  0  0  0  0  0
   14.9772    1.7024   13.3709 C   0  0  0  0  0  0  0  0  0  0  0  0
   16.3737    1.5562   13.2943 C   0  0  0  0  0  0  0  0  0  0  0  0
   17.0307    1.3006   12.0825 C   0  0  0  0  0  0  0  0  0  0  0  0
   16.3173    1.2508   10.8937 C   0  0  0  0  0  0  0  0  0  0  0  0
   14.9484    1.4659   10.9366 C   0  0  0  0  0  0  0  0  0  0  0  0
   14.2177    1.5459    9.7775 O   0  0  0  0  0  0  0  0  0  0  0  0
   14.2600    1.6462   12.1552 C   0  0  0  0  0  0  0  0  0  0  0  0
   12.8799    2.0083   12.0841 N   0  0  0  0  0  0  0  0  0  0  0  0
   16.1297   -4.2186   15.3058 H   0  0  0  0  0  0  0  0  0  0  0  0
   17.3780   -4.8180   16.3984 H   0  0  0  0  0  0  0  0  0  0  0  0
   17.7897   -4.4554   14.7151 H   0  0  0  0  0  0  0  0  0  0  0  0
   18.5647   -2.7009   16.3637 H   0  0  0  0  0  0  0  0  0  0  0  0
   16.8880   -2.4174   16.8127 H   0  0  0  0  0  0  0  0  0  0  0  0
   18.1084   -2.0560   14.0211 H   0  0  0  0  0  0  0  0  0  0  0  0
   17.8766   -0.7449   15.1031 H   0  0  0  0  0  0  0  0  0  0  0  0
   16.6172   -2.4949   12.4465 H   0  0  0  0  0  0  0  0  0  0  0  0
   14.3728   -2.6174   11.5340 H   0  0  0  0  0  0  0  0  0  0  0  0
   12.4325   -1.9386   12.9335 H   0  0  0  0  0  0  0  0  0  0  0  0
   11.7806   -0.9643   14.7259 H   0  0  0  0  0  0  0  0  0  0  0  0
   14.5579   -0.5878   17.0732 H   0  0  0  0  0  0  0  0  0  0  0  0
   17.4348    0.7375   16.2759 H   0  0  0  0  0  0  0  0  0  0  0  0
   16.7323   -0.2498   17.0452 H   0  0  0  0  0  0  0  0  0  0  0  0
   14.2128    0.8912   19.4402 H   0  0  0  0  0  0  0  0  0  0  0  0
   14.0994    2.6686   19.4000 H   0  0  0  0  0  0  0  0  0  0  0  0
   14.7331    1.8316   20.8491 H   0  0  0  0  0  0  0  0  0  0  0  0
   15.5334    2.6099   17.1198 H   0  0  0  0  0  0  0  0  0  0  0  0
   16.7021    2.4451   16.1404 H   0  0  0  0  0  0  0  0  0  0  0  0
   13.7645    1.5452   16.7631 H   0  0  0  0  0  0  0  0  0  0  0  0
   13.1850    1.7627   14.5165 H   0  0  0  0  0  0  0  0  0  0  0  0
   14.2854    3.8166   14.0630 H   0  0  0  0  0  0  0  0  0  0  0  0
   16.9968    1.6334   14.1747 H   0  0  0  0  0  0  0  0  0  0  0  0
   18.1102    1.1680   12.0750 H   0  0  0  0  0  0  0  0  0  0  0  0
   16.8427    1.0893    9.9594 H   0  0  0  0  0  0  0  0  0  0  0  0
   14.8145    1.3630    9.0331 H   0  0  0  0  0  0  0  0  0  0  0  0
   12.5450    1.6438   11.1868 H   0  0  0  0  0  0  0  0  0  0  0  0
   12.8206    3.0227   12.0248 H   0  0  0  0  0  0  0  0  0  0  0  0
  1  2  1  0
  2  3  1  0
  3  4  1  0
  4  5  2  0
  5  6  1  0
  6  7  2  0
  7  8  1  0
  8  9  1  0
  8 10  2  0
 10 11  1  0
 11 12  1  0
 12 13  1  0
 13 14  1  0
 14 15  1  0
 14 16  2  0
 13 17  1  0
 17 18  1  0
 18 19  1  0
 19 20  1  0
 19 21  1  0
 21 22  2  0
 22 23  1  0
 23 24  2  0
 24 25  1  0
 25 26  1  0
 25 27  2  0
 27 28  1  0
 10  4  1  0
 18 11  1  0
 27 21  1  0
  1 29  1  0
  1 30  1  0
  1 31  1  0
  2 32  1  0
  2 33  1  0
  3 34  1  0
  3 35  1  0
  5 36  1  0
  6 37  1  0
  7 38  1  0
  9 39  1  0
 11 40  1  0
 12 41  1  0
 12 42  1  0
 15 43  1  0
 15 44  1  0
 15 45  1  0
 17 46  1  0
 17 47  1  0
 18 48  1  0
 19 49  1  0
 20 50  1  0
 22 51  1  0
 23 52  1  0
 24 53  1  0
 26 54  1  0
 28 55  1  0
 28 56  1  0
M  END
>  <Energy>  (231) 
585.31587846017408

>  <compound_id>  (231) 
1581

>  <target_id>  (231) 
1

>  <reference_id>  (231) 
12

>  <inspiration_ids>  (231) 
[12, 4]

>  <energy_score>  (231) 
485.8488116167025

>  <distance_score>  (231) 
3.73643959156143

>  <path>  (231) 
/opt/xchem-fragalysis-2/maxwin/BulkDock/SCRATCH/505732/C1581-P12/C1581-P12.minimised.mol

>  <scratch_subdir>  (231) 
/opt/xchem-fragalysis-2/maxwin/BulkDock/SCRATCH/505732/C1581-P12

>  <fragmenstein_runtime>  (231) 
101.04118871688843

>  <fragmenstein_outcome>  (231) 
too moved

>  <fragmenstein_mode>  (231) 
expansion

>  <fragmenstein_error>  (231) 


$$$$
C1581-P4
     RDKit          3D

 56 58  0  0  0  0  0  0  0  0999 V2000
   18.4656   -4.1177   14.6218 C   0  0  0  0  0  0  0  0  0  0  0  0
   18.9258   -2.6724   14.7274 C   0  0  0  0  0  0  0  0  0  0  0  0
   18.4083   -1.7672   13.6025 C   0  0  0  0  0  0  0  0  0  0  0  0
   16.8987   -1.7685   13.4639 C   0  0  0  0  0  0  0  0  0  0  0  0
   16.3696   -2.3587   12.3065 C   0  0  0  0  0  0  0  0  0  0  0  0
   15.0011   -2.5078   12.1501 C   0  0  0  0  0  0  0  0  0  0  0  0
   14.1410   -2.1090   13.1613 C   0  0  0  0  0  0  0  0  0  0  0  0
   14.6493   -1.4984   14.3012 C   0  0  0  0  0  0  0  0  0  0  0  0
   13.7677   -1.1201   15.2745 O   0  0  0  0  0  0  0  0  0  0  0  0
   16.0197   -1.2421   14.4472 C   0  0  0  0  0  0  0  0  0  0  0  0
   16.5682   -0.3262   15.5065 C   0  0  0  0  0  0  0  0  0  0  0  0
   15.9479   -0.2382   17.0073 C   0  0  0  0  0  0  0  0  0  0  0  0
   16.9414    0.0094   18.0813 N   0  0  0  0  0  0  0  0  0  0  0  0
   17.4319    1.1010   18.7573 C   0  0  0  0  0  0  0  0  0  0  0  0
   16.6976    1.3700   20.0449 C   0  0  0  0  0  0  0  0  0  0  0  0
   18.3983    1.7673   18.4126 O   0  0  0  0  0  0  0  0  0  0  0  0
   15.6850    0.6303   16.9256 C   0  0  0  0  0  0  0  0  0  0  0  0
   16.1957    1.0725   15.4891 C   0  0  0  0  0  0  0  0  0  0  0  0
   15.0730    1.6552   14.6270 C   0  0  0  0  0  0  0  0  0  0  0  0
   14.8833    3.0053   15.0861 O   0  0  0  0  0  0  0  0  0  0  0  0
   15.2767    1.7029   13.1230 C   0  0  0  0  0  0  0  0  0  0  0  0
   16.5174    1.4066   12.5313 C   0  0  0  0  0  0  0  0  0  0  0  0
   16.6693    1.3454   11.1430 C   0  0  0  0  0  0  0  0  0  0  0  0
   15.5948    1.6299   10.3098 C   0  0  0  0  0  0  0  0  0  0  0  0
   14.3829    2.0013   10.8808 C   0  0  0  0  0  0  0  0  0  0  0  0
   13.3227    2.3711   10.0895 O   0  0  0  0  0  0  0  0  0  0  0  0
   14.2126    2.0711   12.2755 C   0  0  0  0  0  0  0  0  0  0  0  0
   12.9206    2.3574   12.7880 N   0  0  0  0  0  0  0  0  0  0  0  0
   17.3927   -4.2076   14.8135 H   0  0  0  0  0  0  0  0  0  0  0  0
   18.9817   -4.7298   15.3688 H   0  0  0  0  0  0  0  0  0  0  0  0
   18.6896   -4.5323   13.6343 H   0  0  0  0  0  0  0  0  0  0  0  0
   18.6360   -2.2941   15.7125 H   0  0  0  0  0  0  0  0  0  0  0  0
   20.0222   -2.6510   14.7037 H   0  0  0  0  0  0  0  0  0  0  0  0
   18.8691   -2.0925   12.6603 H   0  0  0  0  0  0  0  0  0  0  0  0
   18.7659   -0.7416   13.7487 H   0  0  0  0  0  0  0  0  0  0  0  0
   17.0263   -2.7492   11.5316 H   0  0  0  0  0  0  0  0  0  0  0  0
   14.6222   -3.0016   11.2652 H   0  0  0  0  0  0  0  0  0  0  0  0
   13.0767   -2.2845   13.0554 H   0  0  0  0  0  0  0  0  0  0  0  0
   12.8720   -1.3269   14.9499 H   0  0  0  0  0  0  0  0  0  0  0  0
   17.6555   -0.4159   15.5979 H   0  0  0  0  0  0  0  0  0  0  0  0
   16.3401   -1.3348   17.0777 H   0  0  0  0  0  0  0  0  0  0  0  0
   14.9968   -0.9529   17.3584 H   0  0  0  0  0  0  0  0  0  0  0  0
   15.8251    0.7190   20.1537 H   0  0  0  0  0  0  0  0  0  0  0  0
   17.3738    1.1944   20.8856 H   0  0  0  0  0  0  0  0  0  0  0  0
   16.3572    2.4089   20.0515 H   0  0  0  0  0  0  0  0  0  0  0  0
   14.5529    0.8639   17.2800 H   0  0  0  0  0  0  0  0  0  0  0  0
   15.8127    1.7281   17.3088 H   0  0  0  0  0  0  0  0  0  0  0  0
   17.0557    1.7525   15.5720 H   0  0  0  0  0  0  0  0  0  0  0  0
   14.1285    1.1533   14.8411 H   0  0  0  0  0  0  0  0  0  0  0  0
   15.4469    3.5746   14.5306 H   0  0  0  0  0  0  0  0  0  0  0  0
   17.3889    1.1869   13.1424 H   0  0  0  0  0  0  0  0  0  0  0  0
   17.6336    1.0768   10.7186 H   0  0  0  0  0  0  0  0  0  0  0  0
   15.7263    1.5853    9.2344 H   0  0  0  0  0  0  0  0  0  0  0  0
   13.5769    2.2217    9.1644 H   0  0  0  0  0  0  0  0  0  0  0  0
   12.4061    2.8786   12.0784 H   0  0  0  0  0  0  0  0  0  0  0  0
   12.9821    2.8509   13.6780 H   0  0  0  0  0  0  0  0  0  0  0  0
  1  2  1  0
  2  3  1  0
  3  4  1  0
  4  5  2  0
  5  6  1  0
  6  7  2  0
  7  8  1  0
  8  9  1  0
  8 10  2  0
 10 11  1  0
 11 12  1  0
 12 13  1  0
 13 14  1  0
 14 15  1  0
 14 16  2  0
 13 17  1  0
 17 18  1  0
 18 19  1  0
 19 20  1  0
 19 21  1  0
 21 22  2  0
 22 23  1  0
 23 24  2  0
 24 25  1  0
 25 26  1  0
 25 27  2  0
 27 28  1  0
 10  4  1  0
 18 11  1  0
 27 21  1  0
  1 29  1  0
  1 30  1  0
  1 31  1  0
  2 32  1  0
  2 33  1  0
  3 34  1  0
  3 35  1  0
  5 36  1  0
  6 37  1  0
  7 38  1  0
  9 39  1  0
 11 40  1  0
 12 41  1  0
 12 42  1  0
 15 43  1  0
 15 44  1  0
 15 45  1  0
 17 46  1  0
 17 47  1  0
 18 48  1  0
 19 49  1  0
 20 50  1  0
 22 51  1  0
 23 52  1  0
 24 53  1  0
 26 54  1  0
 28 55  1  0
 28 56  1  0
M  END
>  <Energy>  (232) 
569.56147201591182

>  <compound_id>  (232) 
1581

>  <target_id>  (232) 
1

>  <reference_id>  (232) 
4

>  <inspiration_ids>  (232) 
[12, 4]

>  <energy_score>  (232) 
470.0944051724448

>  <distance_score>  (232) 
3.7849006582712366

>  <path>  (232) 
/opt/xchem-fragalysis-2/maxwin/BulkDock/SCRATCH/505732/C1581-P4/C1581-P4.minimised.mol

>  <scratch_subdir>  (232) 
/opt/xchem-fragalysis-2/maxwin/BulkDock/SCRATCH/505732/C1581-P4

>  <fragmenstein_runtime>  (232) 
98.18226647377014

>  <fragmenstein_outcome>  (232) 
too moved

>  <fragmenstein_mode>  (232) 
expansion

>  <fragmenstein_error>  (232) 


$$$$
C1583-P12
     RDKit          3D

 39 41  0  0  0  0  0  0  0  0999 V2000
   18.5650    0.7005   13.2745 C   0  0  0  0  0  0  0  0  0  0  0  0
   18.6878    0.5469   14.7748 C   0  0  0  0  0  0  0  0  0  0  0  0
   19.4282    1.1897   15.4238 O   0  0  0  0  0  0  0  0  0  0  0  0
   17.7020   -0.5279   15.1873 N   0  0  0  0  0  0  0  0  0  0  0  0
   16.3310    0.0704   15.5038 C   0  0  0  0  0  0  0  0  0  0  0  0
   15.3023   -0.8490   16.1388 C   0  0  0  0  0  0  0  0  0  0  0  0
   16.2112   -2.0061   16.4386 C   0  0  0  0  0  0  0  0  0  0  0  0
   17.4476   -1.1669   16.5362 C   0  0  0  0  0  0  0  0  0  0  0  0
   15.7306   -2.8621   17.6004 C   0  0  0  0  0  0  0  0  0  0  0  0
   15.7748   -2.1449   18.8219 O   0  0  0  0  0  0  0  0  0  0  0  0
   14.0285   -3.3742   17.1594 S   0  0  0  0  0  0  0  0  0  0  0  0
   13.2385   -3.8853   18.4528 O   0  0  0  0  0  0  0  0  0  0  0  0
   14.1907   -4.5746   16.1291 O   0  0  0  0  0  0  0  0  0  0  0  0
   13.1537   -2.0857   16.3527 C   0  0  0  0  0  0  0  0  0  0  0  0
   11.9605   -2.4262   15.4928 C   0  0  0  0  0  0  0  0  0  0  0  0
   11.8556   -1.2238   14.5408 C   0  0  0  0  0  0  0  0  0  0  0  0
   13.1164   -0.3689   14.7584 C   0  0  0  0  0  0  0  0  0  0  0  0
   14.0866   -1.3557   15.3751 C   0  0  0  0  0  0  0  0  0  0  0  0
   19.5661    0.7903   12.8432 H   0  0  0  0  0  0  0  0  0  0  0  0
   18.0745   -0.1627   12.8157 H   0  0  0  0  0  0  0  0  0  0  0  0
   17.9872    1.6017   13.0538 H   0  0  0  0  0  0  0  0  0  0  0  0
   16.4715    0.9921   16.0952 H   0  0  0  0  0  0  0  0  0  0  0  0
   15.9505    0.4363   14.5404 H   0  0  0  0  0  0  0  0  0  0  0  0
   14.9547   -0.3486   17.0549 H   0  0  0  0  0  0  0  0  0  0  0  0
   16.3077   -2.6630   15.5603 H   0  0  0  0  0  0  0  0  0  0  0  0
   17.5131   -0.4461   17.3700 H   0  0  0  0  0  0  0  0  0  0  0  0
   18.3144   -1.8242   16.6883 H   0  0  0  0  0  0  0  0  0  0  0  0
   16.3303   -3.7711   17.7034 H   0  0  0  0  0  0  0  0  0  0  0  0
   15.1859   -2.6402   19.4250 H   0  0  0  0  0  0  0  0  0  0  0  0
   12.2453   -3.8932   18.4602 H   0  0  0  0  0  0  0  0  0  0  0  0
   13.6015   -5.3655   16.2675 H   0  0  0  0  0  0  0  0  0  0  0  0
   12.8431   -1.3988   17.1475 H   0  0  0  0  0  0  0  0  0  0  0  0
   12.1097   -3.3444   14.9201 H   0  0  0  0  0  0  0  0  0  0  0  0
   11.0494   -2.5565   16.0761 H   0  0  0  0  0  0  0  0  0  0  0  0
   10.9509   -0.6363   14.7270 H   0  0  0  0  0  0  0  0  0  0  0  0
   11.8210   -1.5811   13.5074 H   0  0  0  0  0  0  0  0  0  0  0  0
   13.4849    0.0584   13.8211 H   0  0  0  0  0  0  0  0  0  0  0  0
   12.8997    0.4566   15.4469 H   0  0  0  0  0  0  0  0  0  0  0  0
   14.4182   -2.0399   14.5804 H   0  0  0  0  0  0  0  0  0  0  0  0
  1  2  1  0
  2  3  2  0
  2  4  1  0
  4  5  1  0
  5  6  1  0
  6  7  1  0
  7  8  1  0
  7  9  1  0
  9 10  1  0
  9 11  1  0
 11 12  1  0
 11 13  1  0
 11 14  1  0
 14 15  1  0
 15 16  1  0
 16 17  1  0
 17 18  1  0
  8  4  1  0
 18 14  1  0
 18  6  1  0
  1 19  1  0
  1 20  1  0
  1 21  1  0
  5 22  1  0
  5 23  1  0
  6 24  1  0
  7 25  1  0
  8 26  1  0
  8 27  1  0
  9 28  1  0
 10 29  1  0
 12 30  1  0
 13 31  1  0
 14 32  1  0
 15 33  1  0
 15 34  1  0
 16 35  1  0
 16 36  1  0
 17 37  1  0
 17 38  1  0
 18 39  1  0
M  END
>  <Energy>  (233) 
116.14580398856805

>  <compound_id>  (233) 
1583

>  <target_id>  (233) 
1

>  <reference_id>  (233) 
12

>  <inspiration_ids>  (233) 
[12, 6]

>  <energy_score>  (233) 
-29.99400525696555

>  <distance_score>  (233) 
2.4461154903796696

>  <path>  (233) 
/opt/xchem-fragalysis-2/maxwin/BulkDock/SCRATCH/505732/C1583-P12/C1583-P12.minimised.mol

>  <scratch_subdir>  (233) 
/opt/xchem-fragalysis-2/maxwin/BulkDock/SCRATCH/505732/C1583-P12

>  <fragmenstein_runtime>  (233) 
1.8494396209716797

>  <fragmenstein_outcome>  (233) 
too moved

>  <fragmenstein_mode>  (233) 
expansion

>  <fragmenstein_error>  (233) 


$$$$
C1583-P6
     RDKit          3D

 39 41  0  0  0  0  0  0  0  0999 V2000
   18.5351    0.6662   13.1630 C   0  0  0  0  0  0  0  0  0  0  0  0
   18.6739    0.5292   14.6636 C   0  0  0  0  0  0  0  0  0  0  0  0
   19.4274    1.1734   15.2959 O   0  0  0  0  0  0  0  0  0  0  0  0
   17.6859   -0.5339   15.1005 N   0  0  0  0  0  0  0  0  0  0  0  0
   16.3238    0.0778   15.4283 C   0  0  0  0  0  0  0  0  0  0  0  0
   15.2964   -0.8276   16.0857 C   0  0  0  0  0  0  0  0  0  0  0  0
   16.2012   -1.9875   16.3864 C   0  0  0  0  0  0  0  0  0  0  0  0
   17.4446   -1.1565   16.4594 C   0  0  0  0  0  0  0  0  0  0  0  0
   15.7285   -2.8285   17.5614 C   0  0  0  0  0  0  0  0  0  0  0  0
   15.7917   -2.1023   18.7768 O   0  0  0  0  0  0  0  0  0  0  0  0
   14.0161   -3.3327   17.1472 S   0  0  0  0  0  0  0  0  0  0  0  0
   13.2407   -3.8079   18.4630 O   0  0  0  0  0  0  0  0  0  0  0  0
   14.1505   -4.5487   16.1298 O   0  0  0  0  0  0  0  0  0  0  0  0
   13.1414   -2.0459   16.3396 C   0  0  0  0  0  0  0  0  0  0  0  0
   11.9337   -2.3885   15.5001 C   0  0  0  0  0  0  0  0  0  0  0  0
   11.8380   -1.2108   14.5166 C   0  0  0  0  0  0  0  0  0  0  0  0
   13.0982   -0.3526   14.7217 C   0  0  0  0  0  0  0  0  0  0  0  0
   14.0688   -1.3357   15.3425 C   0  0  0  0  0  0  0  0  0  0  0  0
   17.9977    1.5911   12.9374 H   0  0  0  0  0  0  0  0  0  0  0  0
   19.5326    0.7010   12.7158 H   0  0  0  0  0  0  0  0  0  0  0  0
   17.9956   -0.1778   12.7237 H   0  0  0  0  0  0  0  0  0  0  0  0
   16.4785    1.0042   16.0085 H   0  0  0  0  0  0  0  0  0  0  0  0
   15.9336    0.4370   14.4662 H   0  0  0  0  0  0  0  0  0  0  0  0
   14.9633   -0.3150   17.0004 H   0  0  0  0  0  0  0  0  0  0  0  0
   16.2825   -2.6541   15.5139 H   0  0  0  0  0  0  0  0  0  0  0  0
   17.5261   -0.4275   17.2846 H   0  0  0  0  0  0  0  0  0  0  0  0
   18.3085   -1.8185   16.6073 H   0  0  0  0  0  0  0  0  0  0  0  0
   16.3233   -3.7406   17.6653 H   0  0  0  0  0  0  0  0  0  0  0  0
   15.2046   -2.5871   19.3900 H   0  0  0  0  0  0  0  0  0  0  0  0
   12.2490   -3.8560   18.4656 H   0  0  0  0  0  0  0  0  0  0  0  0
   13.6179   -5.3677   16.3219 H   0  0  0  0  0  0  0  0  0  0  0  0
   12.8448   -1.3498   17.1332 H   0  0  0  0  0  0  0  0  0  0  0  0
   12.0563   -3.3271   14.9537 H   0  0  0  0  0  0  0  0  0  0  0  0
   11.0276   -2.4812   16.0982 H   0  0  0  0  0  0  0  0  0  0  0  0
   10.9318   -0.6184   14.6773 H   0  0  0  0  0  0  0  0  0  0  0  0
   11.8141   -1.5962   13.4930 H   0  0  0  0  0  0  0  0  0  0  0  0
   13.4630    0.0662   13.7792 H   0  0  0  0  0  0  0  0  0  0  0  0
   12.8844    0.4784   15.4043 H   0  0  0  0  0  0  0  0  0  0  0  0
   14.3870   -2.0337   14.5541 H   0  0  0  0  0  0  0  0  0  0  0  0
  1  2  1  0
  2  3  2  0
  2  4  1  0
  4  5  1  0
  5  6  1  0
  6  7  1  0
  7  8  1  0
  7  9  1  0
  9 10  1  0
  9 11  1  0
 11 12  1  0
 11 13  1  0
 11 14  1  0
 14 15  1  0
 15 16  1  0
 16 17  1  0
 17 18  1  0
  8  4  1  0
 18 14  1  0
 18  6  1  0
  1 19  1  0
  1 20  1  0
  1 21  1  0
  5 22  1  0
  5 23  1  0
  6 24  1  0
  7 25  1  0
  8 26  1  0
  8 27  1  0
  9 28  1  0
 10 29  1  0
 12 30  1  0
 13 31  1  0
 14 32  1  0
 15 33  1  0
 15 34  1  0
 16 35  1  0
 16 36  1  0
 17 37  1  0
 17 38  1  0
 18 39  1  0
M  END
>  <Energy>  (234) 
115.92261382977624

>  <compound_id>  (234) 
1583

>  <target_id>  (234) 
1

>  <reference_id>  (234) 
6

>  <inspiration_ids>  (234) 
[12, 6]

>  <energy_score>  (234) 
-30.21719541576033

>  <distance_score>  (234) 
2.4157870248167645

>  <path>  (234) 
/opt/xchem-fragalysis-2/maxwin/BulkDock/SCRATCH/505732/C1583-P6/C1583-P6.minimised.mol

>  <scratch_subdir>  (234) 
/opt/xchem-fragalysis-2/maxwin/BulkDock/SCRATCH/505732/C1583-P6

>  <fragmenstein_runtime>  (234) 
1.642995834350586

>  <fragmenstein_outcome>  (234) 
too moved

>  <fragmenstein_mode>  (234) 
expansion

>  <fragmenstein_error>  (234) 


$$$$
C1584-P12
     RDKit          3D

 49 51  0  0  0  0  0  0  0  0999 V2000
   18.6768   -0.6423   13.1051 C   0  0  0  0  0  0  0  0  0  0  0  0
   18.7231   -0.3767   14.5953 C   0  0  0  0  0  0  0  0  0  0  0  0
   19.4019    0.5155   15.0300 O   0  0  0  0  0  0  0  0  0  0  0  0
   17.8934   -1.3195   15.2654 N   0  0  0  0  0  0  0  0  0  0  0  0
   17.6837   -1.5760   16.7330 C   0  0  0  0  0  0  0  0  0  0  0  0
   16.4561   -2.4410   16.9996 C   0  0  0  0  0  0  0  0  0  0  0  0
   15.9959   -2.4452   18.4510 C   0  0  0  0  0  0  0  0  0  0  0  0
   16.2584   -1.2389   19.1384 O   0  0  0  0  0  0  0  0  0  0  0  0
   15.5624   -1.8708   15.9268 C   0  0  0  0  0  0  0  0  0  0  0  0
   14.0604   -1.7269   16.0857 C   0  0  0  0  0  0  0  0  0  0  0  0
   13.3627   -2.9527   16.1919 C   0  0  0  0  0  0  0  0  0  0  0  0
   12.0119   -3.0594   15.8686 C   0  0  0  0  0  0  0  0  0  0  0  0
   11.3279   -1.9477   15.4064 C   0  0  0  0  0  0  0  0  0  0  0  0
   11.9643   -0.7109   15.3916 C   0  0  0  0  0  0  0  0  0  0  0  0
   13.3008   -0.5799   15.8051 C   0  0  0  0  0  0  0  0  0  0  0  0
   13.7141    0.7344   16.0058 N   0  0  0  0  0  0  0  0  0  0  0  0
   14.5801    1.3102   17.0008 C   0  0  0  0  0  0  0  0  0  0  0  0
   15.2310    0.7943   17.8639 O   0  0  0  0  0  0  0  0  0  0  0  0
   14.6275    2.8411   16.7715 C   0  0  0  0  0  0  0  0  0  0  0  0
   14.8606    3.5722   18.0994 C   0  0  0  0  0  0  0  0  0  0  0  0
   14.9540    4.9957   17.9304 O   0  0  0  0  0  0  0  0  0  0  0  0
   14.1395    5.4898   16.8610 C   0  0  0  0  0  0  0  0  0  0  0  0
   12.9731    4.5592   16.5406 C   0  0  0  0  0  0  0  0  0  0  0  0
   13.4319    3.2769   16.0853 O   0  0  0  0  0  0  0  0  0  0  0  0
   16.4793   -0.7837   15.3863 C   0  0  0  0  0  0  0  0  0  0  0  0
   18.1467   -1.5702   12.8705 H   0  0  0  0  0  0  0  0  0  0  0  0
   19.6994   -0.7285   12.7272 H   0  0  0  0  0  0  0  0  0  0  0  0
   18.1689    0.1898   12.6100 H   0  0  0  0  0  0  0  0  0  0  0  0
   18.5774   -2.1316   17.0489 H   0  0  0  0  0  0  0  0  0  0  0  0
   17.7527   -0.6355   17.3036 H   0  0  0  0  0  0  0  0  0  0  0  0
   16.6685   -3.4849   16.7267 H   0  0  0  0  0  0  0  0  0  0  0  0
   16.5524   -3.2221   18.9873 H   0  0  0  0  0  0  0  0  0  0  0  0
   14.9372   -2.6951   18.5599 H   0  0  0  0  0  0  0  0  0  0  0  0
   15.7465   -0.5151   18.7162 H   0  0  0  0  0  0  0  0  0  0  0  0
   15.6091   -2.6150   15.1084 H   0  0  0  0  0  0  0  0  0  0  0  0
   13.8989   -3.8722   16.4249 H   0  0  0  0  0  0  0  0  0  0  0  0
   11.5187   -4.0268   15.9148 H   0  0  0  0  0  0  0  0  0  0  0  0
   10.2976   -2.0354   15.0714 H   0  0  0  0  0  0  0  0  0  0  0  0
   11.3845    0.1615   15.0984 H   0  0  0  0  0  0  0  0  0  0  0  0
   13.2561    1.4866   15.4883 H   0  0  0  0  0  0  0  0  0  0  0  0
   15.4642    3.0403   16.0904 H   0  0  0  0  0  0  0  0  0  0  0  0
   14.0403    3.3752   18.8004 H   0  0  0  0  0  0  0  0  0  0  0  0
   15.7852    3.2396   18.5826 H   0  0  0  0  0  0  0  0  0  0  0  0
   14.7873    5.6021   15.9846 H   0  0  0  0  0  0  0  0  0  0  0  0
   13.7780    6.4821   17.1464 H   0  0  0  0  0  0  0  0  0  0  0  0
   12.3463    4.9847   15.7513 H   0  0  0  0  0  0  0  0  0  0  0  0
   12.3441    4.3994   17.4223 H   0  0  0  0  0  0  0  0  0  0  0  0
   16.4821    0.1857   15.8957 H   0  0  0  0  0  0  0  0  0  0  0  0
   16.1562   -0.5344   14.3644 H   0  0  0  0  0  0  0  0  0  0  0  0
  1  2  1  0
  2  3  2  0
  2  4  1  0
  4  5  1  0
  5  6  1  0
  6  7  1  0
  7  8  1  0
  6  9  1  0
  9 10  1  0
 10 11  2  0
 11 12  1  0
 12 13  2  0
 13 14  1  0
 14 15  2  0
 15 16  1  0
 16 17  1  0
 17 18  2  0
 17 19  1  0
 19 20  1  0
 20 21  1  0
 21 22  1  0
 22 23  1  0
 23 24  1  0
  9 25  1  0
 25  4  1  0
 15 10  1  0
 24 19  1  0
  1 26  1  0
  1 27  1  0
  1 28  1  0
  5 29  1  0
  5 30  1  0
  6 31  1  0
  7 32  1  0
  7 33  1  0
  8 34  1  0
  9 35  1  0
 11 36  1  0
 12 37  1  0
 13 38  1  0
 14 39  1  0
 16 40  1  0
 19 41  1  0
 20 42  1  0
 20 43  1  0
 22 44  1  0
 22 45  1  0
 23 46  1  0
 23 47  1  0
 25 48  1  0
 25 49  1  0
M  END
>  <Energy>  (235) 
172.98382293552612

>  <compound_id>  (235) 
1584

>  <target_id>  (235) 
1

>  <reference_id>  (235) 
12

>  <inspiration_ids>  (235) 
[12, 8]

>  <energy_score>  (235) 
1.4035176943969532

>  <distance_score>  (235) 
2.2188916114941333

>  <path>  (235) 
/opt/xchem-fragalysis-2/maxwin/BulkDock/SCRATCH/505732/C1584-P12/C1584-P12.minimised.mol

>  <scratch_subdir>  (235) 
/opt/xchem-fragalysis-2/maxwin/BulkDock/SCRATCH/505732/C1584-P12

>  <fragmenstein_runtime>  (235) 
15.008242845535278

>  <fragmenstein_outcome>  (235) 
too moved

>  <fragmenstein_mode>  (235) 
expansion

>  <fragmenstein_error>  (235) 


$$$$
C1584-P8
     RDKit          3D

 49 51  0  0  0  0  0  0  0  0999 V2000
   18.6041   -0.1367   13.3552 C   0  0  0  0  0  0  0  0  0  0  0  0
   18.6312   -0.0324   14.8657 C   0  0  0  0  0  0  0  0  0  0  0  0
   19.2875    0.8209   15.4015 O   0  0  0  0  0  0  0  0  0  0  0  0
   17.8144   -1.0575   15.4214 N   0  0  0  0  0  0  0  0  0  0  0  0
   17.5959   -1.4740   16.8505 C   0  0  0  0  0  0  0  0  0  0  0  0
   16.3811   -2.3825   17.0118 C   0  0  0  0  0  0  0  0  0  0  0  0
   15.9050   -2.5364   18.4499 C   0  0  0  0  0  0  0  0  0  0  0  0
   16.1253   -1.3935   19.2514 O   0  0  0  0  0  0  0  0  0  0  0  0
   15.4897   -1.7229   15.9895 C   0  0  0  0  0  0  0  0  0  0  0  0
   13.9817   -1.6304   16.1346 C   0  0  0  0  0  0  0  0  0  0  0  0
   13.3123   -2.8763   16.1121 C   0  0  0  0  0  0  0  0  0  0  0  0
   11.9716   -2.9823   15.7472 C   0  0  0  0  0  0  0  0  0  0  0  0
   11.2710   -1.8473   15.3734 C   0  0  0  0  0  0  0  0  0  0  0  0
   11.8767   -0.6004   15.4888 C   0  0  0  0  0  0  0  0  0  0  0  0
   13.2001   -0.4794   15.9446 C   0  0  0  0  0  0  0  0  0  0  0  0
   13.5757    0.8178   16.2833 N   0  0  0  0  0  0  0  0  0  0  0  0
   14.4043    1.3122   17.3510 C   0  0  0  0  0  0  0  0  0  0  0  0
   15.0484    0.7286   18.1755 O   0  0  0  0  0  0  0  0  0  0  0  0
   14.4161    2.8579   17.2778 C   0  0  0  0  0  0  0  0  0  0  0  0
   14.5009    3.4492   18.6895 C   0  0  0  0  0  0  0  0  0  0  0  0
   14.4797    4.8853   18.6399 O   0  0  0  0  0  0  0  0  0  0  0  0
   13.2854    5.3351   17.9884 C   0  0  0  0  0  0  0  0  0  0  0  0
   13.2217    4.7716   16.5705 C   0  0  0  0  0  0  0  0  0  0  0  0
   13.2420    3.3346   16.5834 O   0  0  0  0  0  0  0  0  0  0  0  0
   16.3887   -0.5650   15.5824 C   0  0  0  0  0  0  0  0  0  0  0  0
   18.0987   -1.0460   13.0164 H   0  0  0  0  0  0  0  0  0  0  0  0
   19.6317   -0.1580   12.9816 H   0  0  0  0  0  0  0  0  0  0  0  0
   18.0806    0.7320   12.9470 H   0  0  0  0  0  0  0  0  0  0  0  0
   18.4965   -2.0455   17.1145 H   0  0  0  0  0  0  0  0  0  0  0  0
   17.6442   -0.5987   17.5189 H   0  0  0  0  0  0  0  0  0  0  0  0
   16.6156   -3.3905   16.6401 H   0  0  0  0  0  0  0  0  0  0  0  0
   16.4769   -3.3452   18.9185 H   0  0  0  0  0  0  0  0  0  0  0  0
   14.8524   -2.8232   18.5194 H   0  0  0  0  0  0  0  0  0  0  0  0
   15.5993   -0.6463   18.8923 H   0  0  0  0  0  0  0  0  0  0  0  0
   15.5659   -2.3761   15.0986 H   0  0  0  0  0  0  0  0  0  0  0  0
   13.8670   -3.7994   16.2799 H   0  0  0  0  0  0  0  0  0  0  0  0
   11.4968   -3.9582   15.6934 H   0  0  0  0  0  0  0  0  0  0  0  0
   10.2498   -1.9273   15.0086 H   0  0  0  0  0  0  0  0  0  0  0  0
   11.2831    0.2834   15.2647 H   0  0  0  0  0  0  0  0  0  0  0  0
   13.1106    1.6070   15.8307 H   0  0  0  0  0  0  0  0  0  0  0  0
   15.2934    3.1508   16.6871 H   0  0  0  0  0  0  0  0  0  0  0  0
   13.6650    3.1093   19.3134 H   0  0  0  0  0  0  0  0  0  0  0  0
   15.4295    3.1487   19.1856 H   0  0  0  0  0  0  0  0  0  0  0  0
   13.3041    6.4286   17.9634 H   0  0  0  0  0  0  0  0  0  0  0  0
   12.4202    5.0184   18.5801 H   0  0  0  0  0  0  0  0  0  0  0  0
   14.0718    5.1211   15.9732 H   0  0  0  0  0  0  0  0  0  0  0  0
   12.2998    5.0896   16.0748 H   0  0  0  0  0  0  0  0  0  0  0  0
   16.3660    0.3422   16.1957 H   0  0  0  0  0  0  0  0  0  0  0  0
   16.0711   -0.2115   14.5900 H   0  0  0  0  0  0  0  0  0  0  0  0
  1  2  1  0
  2  3  2  0
  2  4  1  0
  4  5  1  0
  5  6  1  0
  6  7  1  0
  7  8  1  0
  6  9  1  0
  9 10  1  0
 10 11  2  0
 11 12  1  0
 12 13  2  0
 13 14  1  0
 14 15  2  0
 15 16  1  0
 16 17  1  0
 17 18  2  0
 17 19  1  0
 19 20  1  0
 20 21  1  0
 21 22  1  0
 22 23  1  0
 23 24  1  0
  9 25  1  0
 25  4  1  0
 15 10  1  0
 24 19  1  0
  1 26  1  0
  1 27  1  0
  1 28  1  0
  5 29  1  0
  5 30  1  0
  6 31  1  0
  7 32  1  0
  7 33  1  0
  8 34  1  0
  9 35  1  0
 11 36  1  0
 12 37  1  0
 13 38  1  0
 14 39  1  0
 16 40  1  0
 19 41  1  0
 20 42  1  0
 20 43  1  0
 22 44  1  0
 22 45  1  0
 23 46  1  0
 23 47  1  0
 25 48  1  0
 25 49  1  0
M  END
>  <Energy>  (236) 
167.292325147458

>  <compound_id>  (236) 
1584

>  <target_id>  (236) 
1

>  <reference_id>  (236) 
8

>  <inspiration_ids>  (236) 
[12, 8]

>  <energy_score>  (236) 
-4.287980093673525

>  <distance_score>  (236) 
2.3463908115397842

>  <path>  (236) 
/opt/xchem-fragalysis-2/maxwin/BulkDock/SCRATCH/505732/C1584-P8/C1584-P8.minimised.mol

>  <scratch_subdir>  (236) 
/opt/xchem-fragalysis-2/maxwin/BulkDock/SCRATCH/505732/C1584-P8

>  <fragmenstein_runtime>  (236) 
14.816134691238403

>  <fragmenstein_outcome>  (236) 
too moved

>  <fragmenstein_mode>  (236) 
expansion

>  <fragmenstein_error>  (236) 


$$$$
C1585-P12
     RDKit          3D

 41 41  0  0  0  0  0  0  0  0999 V2000
   17.8671   -2.4241   17.1649 C   0  0  0  0  0  0  0  0  0  0  0  0
   16.7807   -3.4816   17.0477 C   0  0  0  0  0  0  0  0  0  0  0  0
   15.5160   -3.1726   17.8629 C   0  0  0  0  0  0  0  0  0  0  0  0
   14.7872   -1.8507   17.5497 C   0  0  0  0  0  0  0  0  0  0  0  0
   13.5533   -1.9743   16.6441 C   0  0  0  0  0  0  0  0  0  0  0  0
   13.8008   -2.6193   15.2949 C   0  0  0  0  0  0  0  0  0  0  0  0
   13.3673   -1.7392   14.0962 C   0  0  0  0  0  0  0  0  0  0  0  0
   14.2343   -1.8176   12.8140 C   0  0  0  0  0  0  0  0  0  0  0  0
   15.5320   -1.1597   12.7865 N   0  0  0  0  0  0  0  0  0  0  0  0
   16.5274   -1.4022   13.7886 C   0  0  0  0  0  0  0  0  0  0  0  0
   16.0496   -0.9542   14.9778 F   0  0  0  0  0  0  0  0  0  0  0  0
   15.8326   -0.2735   11.7746 C   0  0  0  0  0  0  0  0  0  0  0  0
   15.4209    1.1497   12.0344 C   0  0  0  0  0  0  0  0  0  0  0  0
   16.3585   -0.6311   10.7244 O   0  0  0  0  0  0  0  0  0  0  0  0
   13.2227   -0.2986   14.5555 C   0  0  0  0  0  0  0  0  0  0  0  0
   12.3039    0.3868   13.6833 O   0  0  0  0  0  0  0  0  0  0  0  0
   12.7478   -0.4340   16.2593 S   0  0  0  0  0  0  0  0  0  0  0  0
   11.3171   -0.6807   16.2320 O   0  0  0  0  0  0  0  0  0  0  0  0
   13.3265    0.6440   17.0303 O   0  0  0  0  0  0  0  0  0  0  0  0
   18.7698   -2.7587   16.6432 H   0  0  0  0  0  0  0  0  0  0  0  0
   17.5728   -1.4685   16.7280 H   0  0  0  0  0  0  0  0  0  0  0  0
   18.1310   -2.2531   18.2136 H   0  0  0  0  0  0  0  0  0  0  0  0
   16.5473   -3.6479   15.9950 H   0  0  0  0  0  0  0  0  0  0  0  0
   17.1895   -4.4319   17.4139 H   0  0  0  0  0  0  0  0  0  0  0  0
   15.8142   -3.1425   18.9195 H   0  0  0  0  0  0  0  0  0  0  0  0
   14.8111   -4.0045   17.7766 H   0  0  0  0  0  0  0  0  0  0  0  0
   14.4377   -1.4415   18.5075 H   0  0  0  0  0  0  0  0  0  0  0  0
   15.4753   -1.0956   17.1651 H   0  0  0  0  0  0  0  0  0  0  0  0
   12.8070   -2.5679   17.1877 H   0  0  0  0  0  0  0  0  0  0  0  0
   13.1622   -3.5089   15.3116 H   0  0  0  0  0  0  0  0  0  0  0  0
   14.8234   -2.9616   15.1813 H   0  0  0  0  0  0  0  0  0  0  0  0
   12.3738   -2.1075   13.7973 H   0  0  0  0  0  0  0  0  0  0  0  0
   14.4116   -2.8501   12.5144 H   0  0  0  0  0  0  0  0  0  0  0  0
   13.6589   -1.3787   11.9952 H   0  0  0  0  0  0  0  0  0  0  0  0
   17.4550   -0.8663   13.5671 H   0  0  0  0  0  0  0  0  0  0  0  0
   16.7285   -2.4741   13.8567 H   0  0  0  0  0  0  0  0  0  0  0  0
   14.3733    1.2827   11.7537 H   0  0  0  0  0  0  0  0  0  0  0  0
   15.5590    1.4087   13.0872 H   0  0  0  0  0  0  0  0  0  0  0  0
   16.0456    1.8202   11.4371 H   0  0  0  0  0  0  0  0  0  0  0  0
   14.1606    0.2570   14.5493 H   0  0  0  0  0  0  0  0  0  0  0  0
   11.4040    0.1006   13.9511 H   0  0  0  0  0  0  0  0  0  0  0  0
  1  2  1  0
  2  3  1  0
  3  4  1  0
  4  5  1  0
  5  6  1  0
  6  7  1  0
  7  8  1  0
  8  9  1  0
  9 10  1  0
 10 11  1  0
  9 12  1  0
 12 13  1  0
 12 14  2  0
  7 15  1  0
 15 16  1  0
 15 17  1  0
 17 18  2  0
 17 19  2  0
 17  5  1  0
  1 20  1  0
  1 21  1  0
  1 22  1  0
  2 23  1  0
  2 24  1  0
  3 25  1  0
  3 26  1  0
  4 27  1  0
  4 28  1  0
  5 29  1  0
  6 30  1  0
  6 31  1  0
  7 32  1  0
  8 33  1  0
  8 34  1  0
 10 35  1  0
 10 36  1  0
 13 37  1  0
 13 38  1  0
 13 39  1  0
 15 40  1  0
 16 41  1  0
M  END
>  <Energy>  (237) 
54.519335919155068

>  <compound_id>  (237) 
1585

>  <target_id>  (237) 
1

>  <reference_id>  (237) 
12

>  <inspiration_ids>  (237) 
[12, 10]

>  <energy_score>  (237) 
-21.97756566276638

>  <distance_score>  (237) 
1.7189615693511897

>  <path>  (237) 
/opt/xchem-fragalysis-2/maxwin/BulkDock/SCRATCH/505732/C1585-P12/C1585-P12.minimised.mol

>  <scratch_subdir>  (237) 
/opt/xchem-fragalysis-2/maxwin/BulkDock/SCRATCH/505732/C1585-P12

>  <fragmenstein_runtime>  (237) 
12.959646701812744

>  <fragmenstein_outcome>  (237) 
too moved

>  <fragmenstein_mode>  (237) 
expansion

>  <fragmenstein_error>  (237) 


$$$$
C1585-P10
     RDKit          3D

 41 41  0  0  0  0  0  0  0  0999 V2000
   17.7040   -2.3297   17.2339 C   0  0  0  0  0  0  0  0  0  0  0  0
   17.0171   -3.6461   16.9069 C   0  0  0  0  0  0  0  0  0  0  0  0
   15.6420   -3.8354   17.5629 C   0  0  0  0  0  0  0  0  0  0  0  0
   14.6307   -2.6835   17.4577 C   0  0  0  0  0  0  0  0  0  0  0  0
   13.9102   -2.5391   16.1134 C   0  0  0  0  0  0  0  0  0  0  0  0
   14.8304   -2.3144   14.9280 C   0  0  0  0  0  0  0  0  0  0  0  0
   13.9807   -1.7287   13.7864 C   0  0  0  0  0  0  0  0  0  0  0  0
   14.8004   -1.3846   12.5340 C   0  0  0  0  0  0  0  0  0  0  0  0
   15.6057   -0.1714   12.5433 N   0  0  0  0  0  0  0  0  0  0  0  0
   16.6283    0.0671   13.5288 C   0  0  0  0  0  0  0  0  0  0  0  0
   16.0433    0.2910   14.7360 F   0  0  0  0  0  0  0  0  0  0  0  0
   15.3955    0.7932   11.5827 C   0  0  0  0  0  0  0  0  0  0  0  0
   14.3435    1.8139   11.9173 C   0  0  0  0  0  0  0  0  0  0  0  0
   15.9984    0.7865   10.5134 O   0  0  0  0  0  0  0  0  0  0  0  0
   13.1950   -0.5657   14.3730 C   0  0  0  0  0  0  0  0  0  0  0  0
   12.0798   -0.2382   13.5314 O   0  0  0  0  0  0  0  0  0  0  0  0
   12.8277   -1.0971   16.0431 S   0  0  0  0  0  0  0  0  0  0  0  0
   11.4500   -1.5398   16.0224 O   0  0  0  0  0  0  0  0  0  0  0  0
   13.2982   -0.0823   16.9627 O   0  0  0  0  0  0  0  0  0  0  0  0
   18.7176   -2.3246   16.8198 H   0  0  0  0  0  0  0  0  0  0  0  0
   17.1761   -1.4697   16.8161 H   0  0  0  0  0  0  0  0  0  0  0  0
   17.7834   -2.1916   18.3169 H   0  0  0  0  0  0  0  0  0  0  0  0
   16.9548   -3.7626   15.8229 H   0  0  0  0  0  0  0  0  0  0  0  0
   17.6636   -4.4653   17.2472 H   0  0  0  0  0  0  0  0  0  0  0  0
   15.8166   -4.0139   18.6324 H   0  0  0  0  0  0  0  0  0  0  0  0
   15.1875   -4.7539   17.1744 H   0  0  0  0  0  0  0  0  0  0  0  0
   13.8614   -2.8651   18.2172 H   0  0  0  0  0  0  0  0  0  0  0  0
   15.1075   -1.7419   17.7495 H   0  0  0  0  0  0  0  0  0  0  0  0
   13.2702   -3.4105   15.9351 H   0  0  0  0  0  0  0  0  0  0  0  0
   15.3452   -3.2218   14.6163 H   0  0  0  0  0  0  0  0  0  0  0  0
   15.6182   -1.6330   15.2289 H   0  0  0  0  0  0  0  0  0  0  0  0
   13.2498   -2.4830   13.4688 H   0  0  0  0  0  0  0  0  0  0  0  0
   15.4800   -2.2130   12.2995 H   0  0  0  0  0  0  0  0  0  0  0  0
   14.1116   -1.3110   11.6837 H   0  0  0  0  0  0  0  0  0  0  0  0
   17.2216    0.9497   13.2718 H   0  0  0  0  0  0  0  0  0  0  0  0
   17.2808   -0.8073   13.6030 H   0  0  0  0  0  0  0  0  0  0  0  0
   13.3629    1.4386   11.6149 H   0  0  0  0  0  0  0  0  0  0  0  0
   14.3430    2.0380   12.9866 H   0  0  0  0  0  0  0  0  0  0  0  0
   14.5590    2.7413   11.3790 H   0  0  0  0  0  0  0  0  0  0  0  0
   13.7968    0.3376   14.4759 H   0  0  0  0  0  0  0  0  0  0  0  0
   11.3039   -0.7604   13.8387 H   0  0  0  0  0  0  0  0  0  0  0  0
  1  2  1  0
  2  3  1  0
  3  4  1  0
  4  5  1  0
  5  6  1  0
  6  7  1  0
  7  8  1  0
  8  9  1  0
  9 10  1  0
 10 11  1  0
  9 12  1  0
 12 13  1  0
 12 14  2  0
  7 15  1  0
 15 16  1  0
 15 17  1  0
 17 18  2  0
 17 19  2  0
 17  5  1  0
  1 20  1  0
  1 21  1  0
  1 22  1  0
  2 23  1  0
  2 24  1  0
  3 25  1  0
  3 26  1  0
  4 27  1  0
  4 28  1  0
  5 29  1  0
  6 30  1  0
  6 31  1  0
  7 32  1  0
  8 33  1  0
  8 34  1  0
 10 35  1  0
 10 36  1  0
 13 37  1  0
 13 38  1  0
 13 39  1  0
 15 40  1  0
 16 41  1  0
M  END
>  <Energy>  (238) 
46.229604132544878

>  <compound_id>  (238) 
1585

>  <target_id>  (238) 
1

>  <reference_id>  (238) 
10

>  <inspiration_ids>  (238) 
[12, 10]

>  <energy_score>  (238) 
-30.267297449376244

>  <distance_score>  (238) 
2.0066129308008676

>  <path>  (238) 
/opt/xchem-fragalysis-2/maxwin/BulkDock/SCRATCH/505732/C1585-P10/C1585-P10.minimised.mol

>  <scratch_subdir>  (238) 
/opt/xchem-fragalysis-2/maxwin/BulkDock/SCRATCH/505732/C1585-P10

>  <fragmenstein_runtime>  (238) 
14.011948585510254

>  <fragmenstein_outcome>  (238) 
too moved

>  <fragmenstein_mode>  (238) 
expansion

>  <fragmenstein_error>  (238) 


$$$$
C1586-P12
     RDKit          3D

 35 36  0  0  0  0  0  0  0  0999 V2000
   14.4695    0.1849   12.5307 C   0  0  0  0  0  0  0  0  0  0  0  0
   15.8528    0.4957   13.0599 C   0  0  0  0  0  0  0  0  0  0  0  0
   16.5826    1.2521   12.5326 O   0  0  0  0  0  0  0  0  0  0  0  0
   16.0504   -0.3568   14.2982 N   0  0  0  0  0  0  0  0  0  0  0  0
   17.2598   -0.5654   15.1545 C   0  0  0  0  0  0  0  0  0  0  0  0
   16.9947   -1.0791   16.5636 C   0  0  0  0  0  0  0  0  0  0  0  0
   17.3021   -2.5582   16.7540 C   0  0  0  0  0  0  0  0  0  0  0  0
   17.3880   -2.8296   18.1507 O   0  0  0  0  0  0  0  0  0  0  0  0
   15.5900   -0.5542   16.7622 C   0  0  0  0  0  0  0  0  0  0  0  0
   14.4701   -1.5776   16.8195 C   0  0  0  0  0  0  0  0  0  0  0  0
   14.4218   -2.4747   17.8958 C   0  0  0  0  0  0  0  0  0  0  0  0
   13.4937   -3.5077   17.9209 C   0  0  0  0  0  0  0  0  0  0  0  0
   12.5593   -3.6252   16.8966 C   0  0  0  0  0  0  0  0  0  0  0  0
   12.5054   -2.6892   15.8702 C   0  0  0  0  0  0  0  0  0  0  0  0
   11.3894   -2.6416   15.0313 N   0  0  0  0  0  0  0  0  0  0  0  0
   13.4502   -1.6619   15.8573 C   0  0  0  0  0  0  0  0  0  0  0  0
   15.6119    0.3804   15.5490 C   0  0  0  0  0  0  0  0  0  0  0  0
   13.7339    0.8211   13.0287 H   0  0  0  0  0  0  0  0  0  0  0  0
   14.4447    0.3819   11.4549 H   0  0  0  0  0  0  0  0  0  0  0  0
   14.2172   -0.8680   12.6840 H   0  0  0  0  0  0  0  0  0  0  0  0
   17.8593   -1.2967   14.5948 H   0  0  0  0  0  0  0  0  0  0  0  0
   17.9022    0.3330   15.1362 H   0  0  0  0  0  0  0  0  0  0  0  0
   17.6646   -0.5273   17.2399 H   0  0  0  0  0  0  0  0  0  0  0  0
   16.5694   -3.2199   16.2833 H   0  0  0  0  0  0  0  0  0  0  0  0
   18.2828   -2.7949   16.3266 H   0  0  0  0  0  0  0  0  0  0  0  0
   17.6119   -3.7728   18.2389 H   0  0  0  0  0  0  0  0  0  0  0  0
   15.5173    0.0541   17.6730 H   0  0  0  0  0  0  0  0  0  0  0  0
   15.1193   -2.3801   18.7253 H   0  0  0  0  0  0  0  0  0  0  0  0
   13.4616   -4.1871   18.7663 H   0  0  0  0  0  0  0  0  0  0  0  0
   11.8253   -4.4237   16.9400 H   0  0  0  0  0  0  0  0  0  0  0  0
   10.9337   -3.5393   14.8900 H   0  0  0  0  0  0  0  0  0  0  0  0
   11.4997   -2.1400   14.1540 H   0  0  0  0  0  0  0  0  0  0  0  0
   13.3762   -0.9351   15.0566 H   0  0  0  0  0  0  0  0  0  0  0  0
   14.6054    0.7729   15.3523 H   0  0  0  0  0  0  0  0  0  0  0  0
   16.1900    1.3112   15.7073 H   0  0  0  0  0  0  0  0  0  0  0  0
  1  2  1  0
  2  3  2  0
  2  4  1  0
  4  5  1  0
  5  6  1  0
  6  7  1  0
  7  8  1  0
  6  9  1  0
  9 10  1  0
 10 11  2  0
 11 12  1  0
 12 13  2  0
 13 14  1  0
 14 15  1  0
 14 16  2  0
  9 17  1  0
 17  4  1  0
 16 10  1  0
  1 18  1  0
  1 19  1  0
  1 20  1  0
  5 21  1  0
  5 22  1  0
  6 23  1  0
  7 24  1  0
  7 25  1  0
  8 26  1  0
  9 27  1  0
 11 28  1  0
 12 29  1  0
 13 30  1  0
 15 31  1  0
 15 32  1  0
 16 33  1  0
 17 34  1  0
 17 35  1  0
M  END
>  <Energy>  (239) 
91.122226764784472

>  <compound_id>  (239) 
1586

>  <target_id>  (239) 
1

>  <reference_id>  (239) 
12

>  <inspiration_ids>  (239) 
[12, 15]

>  <energy_score>  (239) 
45.225396646446356

>  <distance_score>  (239) 
1.7542212183685126

>  <path>  (239) 
/opt/xchem-fragalysis-2/maxwin/BulkDock/SCRATCH/505732/C1586-P12/C1586-P12.minimised.mol

>  <scratch_subdir>  (239) 
/opt/xchem-fragalysis-2/maxwin/BulkDock/SCRATCH/505732/C1586-P12

>  <fragmenstein_runtime>  (239) 
10.14810824394226

>  <fragmenstein_outcome>  (239) 
too moved

>  <fragmenstein_mode>  (239) 
expansion

>  <fragmenstein_error>  (239) 


$$$$
C1586-P15
     RDKit          3D

 35 36  0  0  0  0  0  0  0  0999 V2000
   14.3000    0.4296   12.7529 C   0  0  0  0  0  0  0  0  0  0  0  0
   15.6950    0.6956   13.2762 C   0  0  0  0  0  0  0  0  0  0  0  0
   16.4178    1.4865   12.7913 O   0  0  0  0  0  0  0  0  0  0  0  0
   15.9133   -0.2468   14.4440 N   0  0  0  0  0  0  0  0  0  0  0  0
   17.1395   -0.5223   15.2584 C   0  0  0  0  0  0  0  0  0  0  0  0
   16.9191   -1.0834   16.6579 C   0  0  0  0  0  0  0  0  0  0  0  0
   17.2981   -2.5475   16.8222 C   0  0  0  0  0  0  0  0  0  0  0  0
   17.4054   -2.8491   18.2119 O   0  0  0  0  0  0  0  0  0  0  0  0
   15.5007   -0.6215   16.8978 C   0  0  0  0  0  0  0  0  0  0  0  0
   14.4035   -1.6713   16.8731 C   0  0  0  0  0  0  0  0  0  0  0  0
   14.3833   -2.6729   17.8556 C   0  0  0  0  0  0  0  0  0  0  0  0
   13.4677   -3.7177   17.7972 C   0  0  0  0  0  0  0  0  0  0  0  0
   12.5078   -3.7376   16.7909 C   0  0  0  0  0  0  0  0  0  0  0  0
   12.4345   -2.7127   15.8533 C   0  0  0  0  0  0  0  0  0  0  0  0
   11.3124   -2.6018   15.0295 N   0  0  0  0  0  0  0  0  0  0  0  0
   13.3681   -1.6774   15.9239 C   0  0  0  0  0  0  0  0  0  0  0  0
   15.5036    0.3972   15.7539 C   0  0  0  0  0  0  0  0  0  0  0  0
   14.2575    0.6972   11.6929 H   0  0  0  0  0  0  0  0  0  0  0  0
   13.5787    1.0363   13.3058 H   0  0  0  0  0  0  0  0  0  0  0  0
   14.0420   -0.6295   12.8406 H   0  0  0  0  0  0  0  0  0  0  0  0
   17.7043   -1.2431   14.6509 H   0  0  0  0  0  0  0  0  0  0  0  0
   17.7976    0.3646   15.2553 H   0  0  0  0  0  0  0  0  0  0  0  0
   17.5756   -0.5136   17.3333 H   0  0  0  0  0  0  0  0  0  0  0  0
   16.5910   -3.2339   16.3486 H   0  0  0  0  0  0  0  0  0  0  0  0
   18.2785   -2.7461   16.3744 H   0  0  0  0  0  0  0  0  0  0  0  0
   18.2313   -2.4531   18.5390 H   0  0  0  0  0  0  0  0  0  0  0  0
   15.4122   -0.0854   17.8514 H   0  0  0  0  0  0  0  0  0  0  0  0
   15.0965   -2.6621   18.6763 H   0  0  0  0  0  0  0  0  0  0  0  0
   13.4729   -4.4893   18.5614 H   0  0  0  0  0  0  0  0  0  0  0  0
   11.7750   -4.5371   16.7770 H   0  0  0  0  0  0  0  0  0  0  0  0
   10.8598   -3.4853   14.8154 H   0  0  0  0  0  0  0  0  0  0  0  0
   11.4082   -2.0260   14.1967 H   0  0  0  0  0  0  0  0  0  0  0  0
   13.2691   -0.8780   15.1992 H   0  0  0  0  0  0  0  0  0  0  0  0
   14.4946    0.8050   15.6068 H   0  0  0  0  0  0  0  0  0  0  0  0
   16.0886    1.3131   15.9663 H   0  0  0  0  0  0  0  0  0  0  0  0
  1  2  1  0
  2  3  2  0
  2  4  1  0
  4  5  1  0
  5  6  1  0
  6  7  1  0
  7  8  1  0
  6  9  1  0
  9 10  1  0
 10 11  2  0
 11 12  1  0
 12 13  2  0
 13 14  1  0
 14 15  1  0
 14 16  2  0
  9 17  1  0
 17  4  1  0
 16 10  1  0
  1 18  1  0
  1 19  1  0
  1 20  1  0
  5 21  1  0
  5 22  1  0
  6 23  1  0
  7 24  1  0
  7 25  1  0
  8 26  1  0
  9 27  1  0
 11 28  1  0
 12 29  1  0
 13 30  1  0
 15 31  1  0
 15 32  1  0
 16 33  1  0
 17 34  1  0
 17 35  1  0
M  END
>  <Energy>  (240) 
93.515231163198877

>  <compound_id>  (240) 
1586

>  <target_id>  (240) 
1

>  <reference_id>  (240) 
15

>  <inspiration_ids>  (240) 
[12, 15]

>  <energy_score>  (240) 
47.61840104486149

>  <distance_score>  (240) 
1.8326465482105088

>  <path>  (240) 
/opt/xchem-fragalysis-2/maxwin/BulkDock/SCRATCH/505732/C1586-P15/C1586-P15.minimised.mol

>  <scratch_subdir>  (240) 
/opt/xchem-fragalysis-2/maxwin/BulkDock/SCRATCH/505732/C1586-P15

>  <fragmenstein_runtime>  (240) 
10.437880516052246

>  <fragmenstein_outcome>  (240) 
too moved

>  <fragmenstein_mode>  (240) 
expansion

>  <fragmenstein_error>  (240) 


$$$$
C1589-P12
     RDKit          3D

 51 52  0  0  0  0  0  0  0  0999 V2000
   18.1884   -2.8621   12.3079 C   0  0  0  0  0  0  0  0  0  0  0  0
   18.5291   -1.5530   12.9781 C   0  0  0  0  0  0  0  0  0  0  0  0
   19.1796   -0.7213   12.4607 O   0  0  0  0  0  0  0  0  0  0  0  0
   17.8878   -1.5837   14.3521 N   0  0  0  0  0  0  0  0  0  0  0  0
   17.9745   -0.6233   15.4808 C   0  0  0  0  0  0  0  0  0  0  0  0
   16.9656   -0.9792   16.5533 C   0  0  0  0  0  0  0  0  0  0  0  0
   17.3068   -2.4125   17.0413 C   0  0  0  0  0  0  0  0  0  0  0  0
   17.1414   -2.4808   18.4577 O   0  0  0  0  0  0  0  0  0  0  0  0
   15.7171   -0.7518   15.6749 C   0  0  0  0  0  0  0  0  0  0  0  0
   15.2834    0.6798   15.8341 N   0  0  0  0  0  0  0  0  0  0  0  0
   14.3107    1.3950   14.9586 C   0  0  0  0  0  0  0  0  0  0  0  0
   12.8408    0.9714   15.1725 C   0  0  0  0  0  0  0  0  0  0  0  0
   14.3744    2.8711   15.4382 C   0  0  0  0  0  0  0  0  0  0  0  0
   14.6563    1.3957   13.4422 C   0  0  0  0  0  0  0  0  0  0  0  0
   13.8477    2.2806   12.6754 O   0  0  0  0  0  0  0  0  0  0  0  0
   14.5479   -1.6703   16.0038 C   0  0  0  0  0  0  0  0  0  0  0  0
   14.3249   -2.1579   17.3007 C   0  0  0  0  0  0  0  0  0  0  0  0
   13.3472   -3.1126   17.5650 C   0  0  0  0  0  0  0  0  0  0  0  0
   12.4368   -3.4469   16.5823 C   0  0  0  0  0  0  0  0  0  0  0  0
   12.5038   -2.8180   15.3479 C   0  0  0  0  0  0  0  0  0  0  0  0
   11.3715   -2.9486   14.3941 C   0  0  0  0  0  0  0  0  0  0  0  0
   13.6002   -2.0098   15.0367 C   0  0  0  0  0  0  0  0  0  0  0  0
   16.4741   -1.0111   14.3154 C   0  0  0  0  0  0  0  0  0  0  0  0
   17.2429   -2.7580   11.7699 H   0  0  0  0  0  0  0  0  0  0  0  0
   18.9811   -3.1210   11.6000 H   0  0  0  0  0  0  0  0  0  0  0  0
   18.1177   -3.6679   13.0433 H   0  0  0  0  0  0  0  0  0  0  0  0
   18.9919   -0.7549   15.8770 H   0  0  0  0  0  0  0  0  0  0  0  0
   17.9930    0.4295   15.1462 H   0  0  0  0  0  0  0  0  0  0  0  0
   17.0185   -0.2794   17.3967 H   0  0  0  0  0  0  0  0  0  0  0  0
   18.3594   -2.6573   16.8604 H   0  0  0  0  0  0  0  0  0  0  0  0
   16.7056   -3.1928   16.5660 H   0  0  0  0  0  0  0  0  0  0  0  0
   17.4031   -3.3779   18.7308 H   0  0  0  0  0  0  0  0  0  0  0  0
   16.1066    1.2708   15.9518 H   0  0  0  0  0  0  0  0  0  0  0  0
   12.6600    0.6513   16.2044 H   0  0  0  0  0  0  0  0  0  0  0  0
   12.1518    1.8049   14.9855 H   0  0  0  0  0  0  0  0  0  0  0  0
   12.5248    0.1838   14.4888 H   0  0  0  0  0  0  0  0  0  0  0  0
   13.6649    3.5129   14.9031 H   0  0  0  0  0  0  0  0  0  0  0  0
   14.1382    2.9514   16.5069 H   0  0  0  0  0  0  0  0  0  0  0  0
   15.3733    3.2979   15.2856 H   0  0  0  0  0  0  0  0  0  0  0  0
   15.6865    1.7338   13.2914 H   0  0  0  0  0  0  0  0  0  0  0  0
   14.5426    0.4006   13.0030 H   0  0  0  0  0  0  0  0  0  0  0  0
   12.9368    1.9459   12.7064 H   0  0  0  0  0  0  0  0  0  0  0  0
   14.9348   -1.8203   18.1348 H   0  0  0  0  0  0  0  0  0  0  0  0
   13.2589   -3.5421   18.5601 H   0  0  0  0  0  0  0  0  0  0  0  0
   11.6529   -4.1664   16.7972 H   0  0  0  0  0  0  0  0  0  0  0  0
   10.8253   -3.8740   14.5701 H   0  0  0  0  0  0  0  0  0  0  0  0
   11.7229   -2.9464   13.3614 H   0  0  0  0  0  0  0  0  0  0  0  0
   10.6909   -2.1107   14.5631 H   0  0  0  0  0  0  0  0  0  0  0  0
   13.6772   -1.6146   14.0272 H   0  0  0  0  0  0  0  0  0  0  0  0
   16.5414   -0.1192   13.6836 H   0  0  0  0  0  0  0  0  0  0  0  0
   15.9105   -1.7210   13.6966 H   0  0  0  0  0  0  0  0  0  0  0  0
  1  2  1  0
  2  3  2  0
  2  4  1  0
  4  5  1  0
  5  6  1  0
  6  7  1  0
  7  8  1  0
  6  9  1  0
  9 10  1  0
 10 11  1  0
 11 12  1  0
 11 13  1  0
 11 14  1  0
 14 15  1  0
  9 16  1  0
 16 17  2  0
 17 18  1  0
 18 19  2  0
 19 20  1  0
 20 21  1  0
 20 22  2  0
  9 23  1  0
 23  4  1  0
 22 16  1  0
  1 24  1  0
  1 25  1  0
  1 26  1  0
  5 27  1  0
  5 28  1  0
  6 29  1  0
  7 30  1  0
  7 31  1  0
  8 32  1  0
 10 33  1  0
 12 34  1  0
 12 35  1  0
 12 36  1  0
 13 37  1  0
 13 38  1  0
 13 39  1  0
 14 40  1  0
 14 41  1  0
 15 42  1  0
 17 43  1  0
 18 44  1  0
 19 45  1  0
 21 46  1  0
 21 47  1  0
 21 48  1  0
 22 49  1  0
 23 50  1  0
 23 51  1  0
M  END
>  <Energy>  (241) 
172.51301242986221

>  <compound_id>  (241) 
1589

>  <target_id>  (241) 
1

>  <reference_id>  (241) 
12

>  <inspiration_ids>  (241) 
[12, 26]

>  <energy_score>  (241) 
15.424158153391659

>  <distance_score>  (241) 
1.6068680223525043

>  <path>  (241) 
/opt/xchem-fragalysis-2/maxwin/BulkDock/SCRATCH/505732/C1589-P12/C1589-P12.minimised.mol

>  <scratch_subdir>  (241) 
/opt/xchem-fragalysis-2/maxwin/BulkDock/SCRATCH/505732/C1589-P12

>  <fragmenstein_runtime>  (241) 
35.265780448913574

>  <fragmenstein_outcome>  (241) 
too moved

>  <fragmenstein_mode>  (241) 
expansion

>  <fragmenstein_error>  (241) 


$$$$
C1589-P26
     RDKit          3D

 51 52  0  0  0  0  0  0  0  0999 V2000
   18.1980   -2.8699   12.3310 C   0  0  0  0  0  0  0  0  0  0  0  0
   18.5383   -1.5598   12.9998 C   0  0  0  0  0  0  0  0  0  0  0  0
   19.1925   -0.7303   12.4837 O   0  0  0  0  0  0  0  0  0  0  0  0
   17.8924   -1.5875   14.3719 N   0  0  0  0  0  0  0  0  0  0  0  0
   17.9778   -0.6260   15.4998 C   0  0  0  0  0  0  0  0  0  0  0  0
   16.9651   -0.9795   16.5694 C   0  0  0  0  0  0  0  0  0  0  0  0
   17.3029   -2.4131   17.0590 C   0  0  0  0  0  0  0  0  0  0  0  0
   17.1358   -2.4799   18.4753 O   0  0  0  0  0  0  0  0  0  0  0  0
   15.7197   -0.7509   15.6872 C   0  0  0  0  0  0  0  0  0  0  0  0
   15.2866    0.6814   15.8431 N   0  0  0  0  0  0  0  0  0  0  0  0
   14.3160    1.3961   14.9646 C   0  0  0  0  0  0  0  0  0  0  0  0
   12.8449    0.9771   15.1802 C   0  0  0  0  0  0  0  0  0  0  0  0
   14.3835    2.8740   15.4385 C   0  0  0  0  0  0  0  0  0  0  0  0
   14.6610    1.3907   13.4481 C   0  0  0  0  0  0  0  0  0  0  0  0
   13.8499    2.2705   12.6780 O   0  0  0  0  0  0  0  0  0  0  0  0
   14.5484   -1.6675   16.0134 C   0  0  0  0  0  0  0  0  0  0  0  0
   14.3202   -2.1551   17.3096 C   0  0  0  0  0  0  0  0  0  0  0  0
   13.3389   -3.1073   17.5709 C   0  0  0  0  0  0  0  0  0  0  0  0
   12.4299   -3.4375   16.5854 C   0  0  0  0  0  0  0  0  0  0  0  0
   12.5014   -2.8060   15.3526 C   0  0  0  0  0  0  0  0  0  0  0  0
   11.3713   -2.9244   14.3950 C   0  0  0  0  0  0  0  0  0  0  0  0
   13.6026   -2.0035   15.0439 C   0  0  0  0  0  0  0  0  0  0  0  0
   16.4804   -1.0115   14.3299 C   0  0  0  0  0  0  0  0  0  0  0  0
   18.1126   -3.6723   13.0685 H   0  0  0  0  0  0  0  0  0  0  0  0
   17.2601   -2.7635   11.7804 H   0  0  0  0  0  0  0  0  0  0  0  0
   18.9984   -3.1364   11.6350 H   0  0  0  0  0  0  0  0  0  0  0  0
   18.9937   -0.7590   15.8993 H   0  0  0  0  0  0  0  0  0  0  0  0
   17.9991    0.4266   15.1647 H   0  0  0  0  0  0  0  0  0  0  0  0
   17.0164   -0.2792   17.4125 H   0  0  0  0  0  0  0  0  0  0  0  0
   18.3552   -2.6605   16.8796 H   0  0  0  0  0  0  0  0  0  0  0  0
   16.7006   -3.1928   16.5837 H   0  0  0  0  0  0  0  0  0  0  0  0
   17.3906   -3.3788   18.7483 H   0  0  0  0  0  0  0  0  0  0  0  0
   16.1107    1.2715   15.9602 H   0  0  0  0  0  0  0  0  0  0  0  0
   12.6633    0.6601   16.2130 H   0  0  0  0  0  0  0  0  0  0  0  0
   12.1582    1.8120   14.9911 H   0  0  0  0  0  0  0  0  0  0  0  0
   12.5266    0.1887   14.4987 H   0  0  0  0  0  0  0  0  0  0  0  0
   13.6764    3.5158   14.9003 H   0  0  0  0  0  0  0  0  0  0  0  0
   14.1468    2.9588   16.5066 H   0  0  0  0  0  0  0  0  0  0  0  0
   15.3838    3.2975   15.2851 H   0  0  0  0  0  0  0  0  0  0  0  0
   15.6905    1.7303   13.2955 H   0  0  0  0  0  0  0  0  0  0  0  0
   14.5494    0.3936   13.0131 H   0  0  0  0  0  0  0  0  0  0  0  0
   12.9413    1.9292   12.7037 H   0  0  0  0  0  0  0  0  0  0  0  0
   14.9293   -1.8198   18.1451 H   0  0  0  0  0  0  0  0  0  0  0  0
   13.2476   -3.5373   18.5655 H   0  0  0  0  0  0  0  0  0  0  0  0
   11.6429   -4.1540   16.7978 H   0  0  0  0  0  0  0  0  0  0  0  0
   10.7819   -3.8156   14.6053 H   0  0  0  0  0  0  0  0  0  0  0  0
   11.7273   -2.9782   13.3641 H   0  0  0  0  0  0  0  0  0  0  0  0
   10.7294   -2.0509   14.5299 H   0  0  0  0  0  0  0  0  0  0  0  0
   13.6835   -1.6078   14.0350 H   0  0  0  0  0  0  0  0  0  0  0  0
   16.5520   -0.1190   13.6990 H   0  0  0  0  0  0  0  0  0  0  0  0
   15.9171   -1.7196   13.7087 H   0  0  0  0  0  0  0  0  0  0  0  0
  1  2  1  0
  2  3  2  0
  2  4  1  0
  4  5  1  0
  5  6  1  0
  6  7  1  0
  7  8  1  0
  6  9  1  0
  9 10  1  0
 10 11  1  0
 11 12  1  0
 11 13  1  0
 11 14  1  0
 14 15  1  0
  9 16  1  0
 16 17  2  0
 17 18  1  0
 18 19  2  0
 19 20  1  0
 20 21  1  0
 20 22  2  0
  9 23  1  0
 23  4  1  0
 22 16  1  0
  1 24  1  0
  1 25  1  0
  1 26  1  0
  5 27  1  0
  5 28  1  0
  6 29  1  0
  7 30  1  0
  7 31  1  0
  8 32  1  0
 10 33  1  0
 12 34  1  0
 12 35  1  0
 12 36  1  0
 13 37  1  0
 13 38  1  0
 13 39  1  0
 14 40  1  0
 14 41  1  0
 15 42  1  0
 17 43  1  0
 18 44  1  0
 19 45  1  0
 21 46  1  0
 21 47  1  0
 21 48  1  0
 22 49  1  0
 23 50  1  0
 23 51  1  0
M  END
>  <Energy>  (242) 
172.63710791050639

>  <compound_id>  (242) 
1589

>  <target_id>  (242) 
1

>  <reference_id>  (242) 
26

>  <inspiration_ids>  (242) 
[12, 26]

>  <energy_score>  (242) 
15.54825363403603

>  <distance_score>  (242) 
1.6106831485338964

>  <path>  (242) 
/opt/xchem-fragalysis-2/maxwin/BulkDock/SCRATCH/505732/C1589-P26/C1589-P26.minimised.mol

>  <scratch_subdir>  (242) 
/opt/xchem-fragalysis-2/maxwin/BulkDock/SCRATCH/505732/C1589-P26

>  <fragmenstein_runtime>  (242) 
35.84660720825195

>  <fragmenstein_outcome>  (242) 
too moved

>  <fragmenstein_mode>  (242) 
expansion

>  <fragmenstein_error>  (242) 


$$$$
C1121-P12
     RDKit          3D

 49 51  0  0  0  0  0  0  0  0999 V2000
   16.0882    1.4468   11.4181 C   0  0  0  0  0  0  0  0  0  0  0  0
   15.9375   -0.0607   11.5310 C   0  0  0  0  0  0  0  0  0  0  0  0
   14.4848   -0.3684   11.8635 C   0  0  0  0  0  0  0  0  0  0  0  0
   14.3152   -1.8109   12.2632 C   0  0  0  0  0  0  0  0  0  0  0  0
   15.2841   -2.2547   13.3417 C   0  0  0  0  0  0  0  0  0  0  0  0
   16.3281   -1.2448   13.8067 C   0  0  0  0  0  0  0  0  0  0  0  0
   17.3109   -1.9396   14.7741 C   0  0  0  0  0  0  0  0  0  0  0  0
   16.5249   -2.0925   16.0932 C   0  0  0  0  0  0  0  0  0  0  0  0
   17.4372   -2.0708   17.3133 C   0  0  0  0  0  0  0  0  0  0  0  0
   16.6896   -2.2999   18.4970 O   0  0  0  0  0  0  0  0  0  0  0  0
   15.4267   -0.9616   16.0979 C   0  0  0  0  0  0  0  0  0  0  0  0
   13.9933   -1.5213   16.1413 C   0  0  0  0  0  0  0  0  0  0  0  0
   12.9352   -0.9800   15.3913 C   0  0  0  0  0  0  0  0  0  0  0  0
   11.7622   -1.7071   15.1806 C   0  0  0  0  0  0  0  0  0  0  0  0
   11.6167   -2.9628   15.7493 C   0  0  0  0  0  0  0  0  0  0  0  0
   12.5773   -3.4373   16.6307 C   0  0  0  0  0  0  0  0  0  0  0  0
   13.7364   -2.7020   16.8556 C   0  0  0  0  0  0  0  0  0  0  0  0
   15.7812   -0.1860   14.7953 C   0  0  0  0  0  0  0  0  0  0  0  0
   16.9822   -0.6790   12.5210 C   0  0  0  0  0  0  0  0  0  0  0  0
   17.7833   -1.7697   11.7562 C   0  0  0  0  0  0  0  0  0  0  0  0
   18.5340   -1.1717   10.6979 O   0  0  0  0  0  0  0  0  0  0  0  0
   15.3777    1.8636   10.6958 H   0  0  0  0  0  0  0  0  0  0  0  0
   17.0953    1.7109   11.0778 H   0  0  0  0  0  0  0  0  0  0  0  0
   15.9200    1.9406   12.3813 H   0  0  0  0  0  0  0  0  0  0  0  0
   16.1195   -0.4591   10.5234 H   0  0  0  0  0  0  0  0  0  0  0  0
   13.8723   -0.1433   10.9913 H   0  0  0  0  0  0  0  0  0  0  0  0
   14.0909    0.2922   12.6390 H   0  0  0  0  0  0  0  0  0  0  0  0
   14.4615   -2.4473   11.3826 H   0  0  0  0  0  0  0  0  0  0  0  0
   13.2907   -1.9835   12.6031 H   0  0  0  0  0  0  0  0  0  0  0  0
   15.8251   -3.1108   12.9554 H   0  0  0  0  0  0  0  0  0  0  0  0
   14.7254   -2.6517   14.1745 H   0  0  0  0  0  0  0  0  0  0  0  0
   18.2024   -1.3165   14.9236 H   0  0  0  0  0  0  0  0  0  0  0  0
   17.6521   -2.9178   14.4177 H   0  0  0  0  0  0  0  0  0  0  0  0
   16.0658   -3.0871   16.0590 H   0  0  0  0  0  0  0  0  0  0  0  0
   18.2009   -2.8516   17.2327 H   0  0  0  0  0  0  0  0  0  0  0  0
   17.9418   -1.1030   17.4056 H   0  0  0  0  0  0  0  0  0  0  0  0
   17.3149   -2.2794   19.2421 H   0  0  0  0  0  0  0  0  0  0  0  0
   15.5364   -0.2927   16.9601 H   0  0  0  0  0  0  0  0  0  0  0  0
   13.0306   -0.0274   14.8811 H   0  0  0  0  0  0  0  0  0  0  0  0
   10.9924   -1.3152   14.5206 H   0  0  0  0  0  0  0  0  0  0  0  0
   10.7530   -3.5699   15.5033 H   0  0  0  0  0  0  0  0  0  0  0  0
   12.4411   -4.4000   17.1149 H   0  0  0  0  0  0  0  0  0  0  0  0
   14.4766   -3.1191   17.5344 H   0  0  0  0  0  0  0  0  0  0  0  0
   14.9739    0.4332   14.4180 H   0  0  0  0  0  0  0  0  0  0  0  0
   16.5900    0.5220   15.0310 H   0  0  0  0  0  0  0  0  0  0  0  0
   17.7010    0.1011   12.8066 H   0  0  0  0  0  0  0  0  0  0  0  0
   17.1342   -2.5225   11.3005 H   0  0  0  0  0  0  0  0  0  0  0  0
   18.4996   -2.2807   12.4047 H   0  0  0  0  0  0  0  0  0  0  0  0
   19.1543   -0.5426   11.1041 H   0  0  0  0  0  0  0  0  0  0  0  0
  1  2  1  0
  2  3  1  0
  3  4  1  0
  4  5  1  0
  5  6  1  0
  6  7  1  0
  7  8  1  0
  8  9  1  0
  9 10  1  0
  8 11  1  0
 11 12  1  0
 12 13  2  0
 13 14  1  0
 14 15  2  0
 15 16  1  0
 16 17  2  0
 11 18  1  0
  6 19  1  0
 19 20  1  0
 20 21  1  0
 19  2  1  0
 18  6  1  0
 17 12  1  0
  1 22  1  0
  1 23  1  0
  1 24  1  0
  2 25  1  0
  3 26  1  0
  3 27  1  0
  4 28  1  0
  4 29  1  0
  5 30  1  0
  5 31  1  0
  7 32  1  0
  7 33  1  0
  8 34  1  0
  9 35  1  0
  9 36  1  0
 10 37  1  0
 11 38  1  0
 13 39  1  0
 14 40  1  0
 15 41  1  0
 16 42  1  0
 17 43  1  0
 18 44  1  0
 18 45  1  0
 19 46  1  0
 20 47  1  0
 20 48  1  0
 21 49  1  0
M  END
>  <Energy>  (243) 
90.153292888219681

>  <compound_id>  (243) 
1121

>  <target_id>  (243) 
1

>  <reference_id>  (243) 
12

>  <inspiration_ids>  (243) 
[12, 31]

>  <energy_score>  (243) 
-18.96364751254748

>  <distance_score>  (243) 
1.4314112640706353

>  <path>  (243) 
/opt/xchem-fragalysis-2/maxwin/BulkDock/SCRATCH/505732/C1121-P12/C1121-P12.minimised.mol

>  <scratch_subdir>  (243) 
/opt/xchem-fragalysis-2/maxwin/BulkDock/SCRATCH/505732/C1121-P12

>  <fragmenstein_runtime>  (243) 
69.33765578269958

>  <fragmenstein_outcome>  (243) 
too moved

>  <fragmenstein_mode>  (243) 
expansion

>  <fragmenstein_error>  (243) 


$$$$
C1121-P31
     RDKit          3D

 49 51  0  0  0  0  0  0  0  0999 V2000
   16.7597    1.5254   11.3971 C   0  0  0  0  0  0  0  0  0  0  0  0
   16.4454    0.0484   11.2356 C   0  0  0  0  0  0  0  0  0  0  0  0
   14.9484   -0.1118   11.4368 C   0  0  0  0  0  0  0  0  0  0  0  0
   14.5750   -1.5546   11.6205 C   0  0  0  0  0  0  0  0  0  0  0  0
   15.4578   -2.3247   12.5795 C   0  0  0  0  0  0  0  0  0  0  0  0
   16.5775   -1.5483   13.2748 C   0  0  0  0  0  0  0  0  0  0  0  0
   17.4355   -2.4825   14.1668 C   0  0  0  0  0  0  0  0  0  0  0  0
   16.6514   -2.6781   15.4788 C   0  0  0  0  0  0  0  0  0  0  0  0
   17.5756   -2.7794   16.7034 C   0  0  0  0  0  0  0  0  0  0  0  0
   16.8664   -2.8791   17.9351 O   0  0  0  0  0  0  0  0  0  0  0  0
   15.6804   -1.4722   15.5605 C   0  0  0  0  0  0  0  0  0  0  0  0
   14.2158   -1.9033   15.6358 C   0  0  0  0  0  0  0  0  0  0  0  0
   13.1986   -1.3532   14.8434 C   0  0  0  0  0  0  0  0  0  0  0  0
   11.9306   -1.9277   14.8055 C   0  0  0  0  0  0  0  0  0  0  0  0
   11.6495   -3.0390   15.5820 C   0  0  0  0  0  0  0  0  0  0  0  0
   12.5961   -3.5149   16.4764 C   0  0  0  0  0  0  0  0  0  0  0  0
   13.8576   -2.9331   16.5183 C   0  0  0  0  0  0  0  0  0  0  0  0
   16.0899   -0.5836   14.3721 C   0  0  0  0  0  0  0  0  0  0  0  0
   17.3635   -0.8327   12.1476 C   0  0  0  0  0  0  0  0  0  0  0  0
   18.1436   -1.8185   11.2384 C   0  0  0  0  0  0  0  0  0  0  0  0
   19.2220   -2.4420   11.9218 O   0  0  0  0  0  0  0  0  0  0  0  0
   16.1485    2.1391   10.7260 H   0  0  0  0  0  0  0  0  0  0  0  0
   17.8095    1.7255   11.1559 H   0  0  0  0  0  0  0  0  0  0  0  0
   16.5828    1.8670   12.4229 H   0  0  0  0  0  0  0  0  0  0  0  0
   16.6518   -0.1976   10.1848 H   0  0  0  0  0  0  0  0  0  0  0  0
   14.4291    0.3062   10.5693 H   0  0  0  0  0  0  0  0  0  0  0  0
   14.5805    0.4853   12.2751 H   0  0  0  0  0  0  0  0  0  0  0  0
   14.6149   -2.0510   10.6459 H   0  0  0  0  0  0  0  0  0  0  0  0
   13.5468   -1.6165   11.9730 H   0  0  0  0  0  0  0  0  0  0  0  0
   15.9008   -3.1221   11.9859 H   0  0  0  0  0  0  0  0  0  0  0  0
   14.8264   -2.8207   13.2978 H   0  0  0  0  0  0  0  0  0  0  0  0
   18.4014   -2.0068   14.3816 H   0  0  0  0  0  0  0  0  0  0  0  0
   17.6473   -3.4478   13.6978 H   0  0  0  0  0  0  0  0  0  0  0  0
   16.1014   -3.6234   15.4003 H   0  0  0  0  0  0  0  0  0  0  0  0
   18.2090   -3.6682   16.6141 H   0  0  0  0  0  0  0  0  0  0  0  0
   18.2400   -1.9104   16.7694 H   0  0  0  0  0  0  0  0  0  0  0  0
   16.4427   -2.0186   18.1028 H   0  0  0  0  0  0  0  0  0  0  0  0
   15.9220   -0.9120   16.4586 H   0  0  0  0  0  0  0  0  0  0  0  0
   13.3810   -0.5046   14.1953 H   0  0  0  0  0  0  0  0  0  0  0  0
   11.1826   -1.5263   14.1328 H   0  0  0  0  0  0  0  0  0  0  0  0
   10.7034   -3.5508   15.4623 H   0  0  0  0  0  0  0  0  0  0  0  0
   12.3770   -4.3815   17.0953 H   0  0  0  0  0  0  0  0  0  0  0  0
   14.5871   -3.3576   17.1988 H   0  0  0  0  0  0  0  0  0  0  0  0
   15.3260    0.1310   14.0828 H   0  0  0  0  0  0  0  0  0  0  0  0
   16.9416    0.0359   14.6924 H   0  0  0  0  0  0  0  0  0  0  0  0
   18.1197   -0.1938   12.6250 H   0  0  0  0  0  0  0  0  0  0  0  0
   18.5921   -1.2732   10.3995 H   0  0  0  0  0  0  0  0  0  0  0  0
   17.5139   -2.5959   10.8004 H   0  0  0  0  0  0  0  0  0  0  0  0
   19.8102   -1.7401   12.2469 H   0  0  0  0  0  0  0  0  0  0  0  0
  1  2  1  0
  2  3  1  0
  3  4  1  0
  4  5  1  0
  5  6  1  0
  6  7  1  0
  7  8  1  0
  8  9  1  0
  9 10  1  0
  8 11  1  0
 11 12  1  0
 12 13  2  0
 13 14  1  0
 14 15  2  0
 15 16  1  0
 16 17  2  0
 11 18  1  0
  6 19  1  0
 19 20  1  0
 20 21  1  0
 19  2  1  0
 18  6  1  0
 17 12  1  0
  1 22  1  0
  1 23  1  0
  1 24  1  0
  2 25  1  0
  3 26  1  0
  3 27  1  0
  4 28  1  0
  4 29  1  0
  5 30  1  0
  5 31  1  0
  7 32  1  0
  7 33  1  0
  8 34  1  0
  9 35  1  0
  9 36  1  0
 10 37  1  0
 11 38  1  0
 13 39  1  0
 14 40  1  0
 15 41  1  0
 16 42  1  0
 17 43  1  0
 18 44  1  0
 18 45  1  0
 19 46  1  0
 20 47  1  0
 20 48  1  0
 21 49  1  0
M  END
>  <Energy>  (244) 
88.36131438402424

>  <compound_id>  (244) 
1121

>  <target_id>  (244) 
1

>  <reference_id>  (244) 
31

>  <inspiration_ids>  (244) 
[12, 31]

>  <energy_score>  (244) 
-20.755626016745083

>  <distance_score>  (244) 
1.6472372494536318

>  <path>  (244) 
/opt/xchem-fragalysis-2/maxwin/BulkDock/SCRATCH/505732/C1121-P31/C1121-P31.minimised.mol

>  <scratch_subdir>  (244) 
/opt/xchem-fragalysis-2/maxwin/BulkDock/SCRATCH/505732/C1121-P31

>  <fragmenstein_runtime>  (244) 
70.67812824249268

>  <fragmenstein_outcome>  (244) 
too moved

>  <fragmenstein_mode>  (244) 
expansion

>  <fragmenstein_error>  (244) 


$$$$
C1591-P12
     RDKit          3D

 40 42  0  0  0  0  0  0  0  0999 V2000
   11.3371   -2.7964   14.8270 C   0  0  0  0  0  0  0  0  0  0  0  0
   12.1758   -3.0456   16.0717 C   0  0  0  0  0  0  0  0  0  0  0  0
   13.6136   -3.1547   15.8489 N   0  0  0  0  0  0  0  0  0  0  0  0
   14.2103   -2.0457   15.1105 C   0  0  0  0  0  0  0  0  0  0  0  0
   14.3664   -0.8387   15.9868 C   0  0  0  0  0  0  0  0  0  0  0  0
   13.4026    0.1763   15.8616 C   0  0  0  0  0  0  0  0  0  0  0  0
   13.3894    1.2391   16.7446 C   0  0  0  0  0  0  0  0  0  0  0  0
   14.3212    1.2769   17.7765 C   0  0  0  0  0  0  0  0  0  0  0  0
   15.3054    0.3106   17.9214 C   0  0  0  0  0  0  0  0  0  0  0  0
   16.1732    0.4627   18.9394 N   0  0  0  0  0  0  0  0  0  0  0  0
   17.1902   -0.4012   19.0579 C   0  0  0  0  0  0  0  0  0  0  0  0
   18.0499   -0.1471   20.0751 O   0  0  0  0  0  0  0  0  0  0  0  0
   17.3660   -1.4236   18.1820 C   0  0  0  0  0  0  0  0  0  0  0  0
   16.4661   -1.6238   17.1839 C   0  0  0  0  0  0  0  0  0  0  0  0
   15.3711   -0.7584   16.9966 C   0  0  0  0  0  0  0  0  0  0  0  0
   17.1179   -2.7349   16.4351 C   0  0  0  0  0  0  0  0  0  0  0  0
   17.9813   -3.6764   17.3177 N   0  0  0  0  0  0  0  0  0  0  0  0
   18.6541   -4.6304   16.5009 C   0  0  0  0  0  0  0  0  0  0  0  0
   17.7889   -5.8614   16.3581 C   0  0  0  0  0  0  0  0  0  0  0  0
   19.7364   -4.5889   15.9814 O   0  0  0  0  0  0  0  0  0  0  0  0
   18.4522   -2.3613   17.8846 C   0  0  0  0  0  0  0  0  0  0  0  0
   10.2776   -2.9234   15.0565 H   0  0  0  0  0  0  0  0  0  0  0  0
   11.5852   -3.4862   14.0177 H   0  0  0  0  0  0  0  0  0  0  0  0
   11.4576   -1.7774   14.4513 H   0  0  0  0  0  0  0  0  0  0  0  0
   11.9796   -2.2547   16.7986 H   0  0  0  0  0  0  0  0  0  0  0  0
   11.8455   -3.9855   16.5269 H   0  0  0  0  0  0  0  0  0  0  0  0
   14.0790   -3.2769   16.7461 H   0  0  0  0  0  0  0  0  0  0  0  0
   13.6448   -1.8044   14.2029 H   0  0  0  0  0  0  0  0  0  0  0  0
   15.1836   -2.3363   14.7069 H   0  0  0  0  0  0  0  0  0  0  0  0
   12.6459    0.1303   15.0811 H   0  0  0  0  0  0  0  0  0  0  0  0
   12.6485    2.0294   16.6548 H   0  0  0  0  0  0  0  0  0  0  0  0
   14.2933    2.1032   18.4855 H   0  0  0  0  0  0  0  0  0  0  0  0
   18.5670   -0.9454   20.2508 H   0  0  0  0  0  0  0  0  0  0  0  0
   17.7067   -2.3758   15.5751 H   0  0  0  0  0  0  0  0  0  0  0  0
   16.3592   -3.4111   16.0335 H   0  0  0  0  0  0  0  0  0  0  0  0
   18.4078   -6.7063   16.0413 H   0  0  0  0  0  0  0  0  0  0  0  0
   17.0151   -5.6879   15.6064 H   0  0  0  0  0  0  0  0  0  0  0  0
   17.3360   -6.1193   17.3190 H   0  0  0  0  0  0  0  0  0  0  0  0
   19.2328   -1.9293   17.2378 H   0  0  0  0  0  0  0  0  0  0  0  0
   18.9661   -2.6417   18.8127 H   0  0  0  0  0  0  0  0  0  0  0  0
  1  2  1  0
  2  3  1  0
  3  4  1  0
  4  5  1  0
  5  6  2  0
  6  7  1  0
  7  8  2  0
  8  9  1  0
  9 10  2  0
 10 11  1  0
 11 12  1  0
 11 13  2  0
 13 14  1  0
 14 15  2  0
 14 16  1  0
 16 17  1  0
 17 18  1  0
 18 19  1  0
 18 20  2  0
 17 21  1  0
 15  5  1  0
 15  9  1  0
 21 13  1  0
  1 22  1  0
  1 23  1  0
  1 24  1  0
  2 25  1  0
  2 26  1  0
  3 27  1  0
  4 28  1  0
  4 29  1  0
  6 30  1  0
  7 31  1  0
  8 32  1  0
 12 33  1  0
 16 34  1  0
 16 35  1  0
 19 36  1  0
 19 37  1  0
 19 38  1  0
 21 39  1  0
 21 40  1  0
M  END
>  <Energy>  (245) 
56.975885613879996

>  <compound_id>  (245) 
1591

>  <target_id>  (245) 
1

>  <reference_id>  (245) 
12

>  <inspiration_ids>  (245) 
[12, 36]

>  <energy_score>  (245) 
23.824065634077982

>  <distance_score>  (245) 
3.8273324770946227

>  <path>  (245) 
/opt/xchem-fragalysis-2/maxwin/BulkDock/SCRATCH/505732/C1591-P12/C1591-P12.minimised.mol

>  <scratch_subdir>  (245) 
/opt/xchem-fragalysis-2/maxwin/BulkDock/SCRATCH/505732/C1591-P12

>  <fragmenstein_runtime>  (245) 
14.44982099533081

>  <fragmenstein_outcome>  (245) 
too moved

>  <fragmenstein_mode>  (245) 
expansion

>  <fragmenstein_error>  (245) 


$$$$
C1591-P36
     RDKit          3D

 40 42  0  0  0  0  0  0  0  0999 V2000
   14.2255   -4.5387   20.5927 C   0  0  0  0  0  0  0  0  0  0  0  0
   13.5861   -4.3223   19.2297 C   0  0  0  0  0  0  0  0  0  0  0  0
   14.5640   -4.5736   18.1764 N   0  0  0  0  0  0  0  0  0  0  0  0
   14.0321   -4.3836   16.8185 C   0  0  0  0  0  0  0  0  0  0  0  0
   13.7174   -2.9627   16.4288 C   0  0  0  0  0  0  0  0  0  0  0  0
   12.3922   -2.6739   16.0567 C   0  0  0  0  0  0  0  0  0  0  0  0
   12.0029   -1.3720   15.7829 C   0  0  0  0  0  0  0  0  0  0  0  0
   12.9210   -0.3382   15.9470 C   0  0  0  0  0  0  0  0  0  0  0  0
   14.2447   -0.5764   16.2894 C   0  0  0  0  0  0  0  0  0  0  0  0
   15.0572    0.4930   16.4331 N   0  0  0  0  0  0  0  0  0  0  0  0
   16.3549    0.2610   16.6704 C   0  0  0  0  0  0  0  0  0  0  0  0
   17.1144    1.3654   16.8188 O   0  0  0  0  0  0  0  0  0  0  0  0
   16.8869   -0.9790   16.7223 C   0  0  0  0  0  0  0  0  0  0  0  0
   16.0744   -2.0582   16.5844 C   0  0  0  0  0  0  0  0  0  0  0  0
   14.6852   -1.9178   16.4416 C   0  0  0  0  0  0  0  0  0  0  0  0
   17.0925   -3.1392   16.4870 C   0  0  0  0  0  0  0  0  0  0  0  0
   18.2621   -2.9022   17.4586 N   0  0  0  0  0  0  0  0  0  0  0  0
   19.1998   -3.9653   17.3617 C   0  0  0  0  0  0  0  0  0  0  0  0
   18.8148   -5.0598   18.3359 C   0  0  0  0  0  0  0  0  0  0  0  0
   20.1724   -4.0886   16.6671 O   0  0  0  0  0  0  0  0  0  0  0  0
   18.2448   -1.5269   16.8000 C   0  0  0  0  0  0  0  0  0  0  0  0
   13.4899   -4.3644   21.3847 H   0  0  0  0  0  0  0  0  0  0  0  0
   14.5975   -5.5635   20.6974 H   0  0  0  0  0  0  0  0  0  0  0  0
   15.0628   -3.8509   20.7526 H   0  0  0  0  0  0  0  0  0  0  0  0
   12.7466   -5.0087   19.1305 H   0  0  0  0  0  0  0  0  0  0  0  0
   13.2171   -3.2973   19.1764 H   0  0  0  0  0  0  0  0  0  0  0  0
   15.3460   -3.9400   18.3345 H   0  0  0  0  0  0  0  0  0  0  0  0
   13.1418   -5.0108   16.6969 H   0  0  0  0  0  0  0  0  0  0  0  0
   14.7560   -4.7761   16.0985 H   0  0  0  0  0  0  0  0  0  0  0  0
   11.6568   -3.4732   15.9721 H   0  0  0  0  0  0  0  0  0  0  0  0
   10.9883   -1.1565   15.4561 H   0  0  0  0  0  0  0  0  0  0  0  0
   12.6020    0.6874   15.7723 H   0  0  0  0  0  0  0  0  0  0  0  0
   16.4332    2.0566   16.7293 H   0  0  0  0  0  0  0  0  0  0  0  0
   17.4593   -3.2907   15.4560 H   0  0  0  0  0  0  0  0  0  0  0  0
   16.6896   -4.1111   16.7715 H   0  0  0  0  0  0  0  0  0  0  0  0
   18.0242   -4.7385   19.0206 H   0  0  0  0  0  0  0  0  0  0  0  0
   19.6915   -5.3311   18.9307 H   0  0  0  0  0  0  0  0  0  0  0  0
   18.4648   -5.9306   17.7748 H   0  0  0  0  0  0  0  0  0  0  0  0
   18.7705   -1.5575   15.8329 H   0  0  0  0  0  0  0  0  0  0  0  0
   18.8629   -0.9044   17.4591 H   0  0  0  0  0  0  0  0  0  0  0  0
  1  2  1  0
  2  3  1  0
  3  4  1  0
  4  5  1  0
  5  6  2  0
  6  7  1  0
  7  8  2  0
  8  9  1  0
  9 10  2  0
 10 11  1  0
 11 12  1  0
 11 13  2  0
 13 14  1  0
 14 15  2  0
 14 16  1  0
 16 17  1  0
 17 18  1  0
 18 19  1  0
 18 20  2  0
 17 21  1  0
 15  5  1  0
 15  9  1  0
 21 13  1  0
  1 22  1  0
  1 23  1  0
  1 24  1  0
  2 25  1  0
  2 26  1  0
  3 27  1  0
  4 28  1  0
  4 29  1  0
  6 30  1  0
  7 31  1  0
  8 32  1  0
 12 33  1  0
 16 34  1  0
 16 35  1  0
 19 36  1  0
 19 37  1  0
 19 38  1  0
 21 39  1  0
 21 40  1  0
M  END
>  <Energy>  (246) 
44.40639733144809

>  <compound_id>  (246) 
1591

>  <target_id>  (246) 
1

>  <reference_id>  (246) 
36

>  <inspiration_ids>  (246) 
[12, 36]

>  <energy_score>  (246) 
11.254577351644883

>  <distance_score>  (246) 
3.394694902913598

>  <path>  (246) 
/opt/xchem-fragalysis-2/maxwin/BulkDock/SCRATCH/505732/C1591-P36/C1591-P36.minimised.mol

>  <scratch_subdir>  (246) 
/opt/xchem-fragalysis-2/maxwin/BulkDock/SCRATCH/505732/C1591-P36

>  <fragmenstein_runtime>  (246) 
14.845225095748901

>  <fragmenstein_outcome>  (246) 
too moved

>  <fragmenstein_mode>  (246) 
expansion

>  <fragmenstein_error>  (246) 


$$$$
C1592-P12
     RDKit          3D

 48 49  0  0  0  0  0  0  0  0999 V2000
   16.8476   -1.0469   10.3777 C   0  0  0  0  0  0  0  0  0  0  0  0
   17.5197   -1.2613   11.7458 C   0  0  0  0  0  0  0  0  0  0  0  0
   17.7979   -2.6600   11.8899 N   0  0  0  0  0  0  0  0  0  0  0  0
   18.7744   -0.6386   11.6584 O   0  0  0  0  0  0  0  0  0  0  0  0
   16.8604   -0.6459   12.8941 N   0  0  0  0  0  0  0  0  0  0  0  0
   15.4167   -0.5163   12.6923 C   0  0  0  0  0  0  0  0  0  0  0  0
   14.9095   -1.8993   12.9972 C   0  0  0  0  0  0  0  0  0  0  0  0
   13.4486   -1.9691   13.3453 C   0  0  0  0  0  0  0  0  0  0  0  0
   12.7192   -0.7770   13.1507 O   0  0  0  0  0  0  0  0  0  0  0  0
   15.8618   -2.4188   14.0995 C   0  0  0  0  0  0  0  0  0  0  0  0
   16.9865   -1.3815   14.1920 C   0  0  0  0  0  0  0  0  0  0  0  0
   16.9418   -0.4511   15.4717 C   0  0  0  0  0  0  0  0  0  0  0  0
   15.5926   -0.2647   16.1174 C   0  0  0  0  0  0  0  0  0  0  0  0
   14.6533    0.6539   15.6594 C   0  0  0  0  0  0  0  0  0  0  0  0
   13.2957    0.3542   15.7518 C   0  0  0  0  0  0  0  0  0  0  0  0
   12.9541   -0.8428   16.3394 C   0  0  0  0  0  0  0  0  0  0  0  0
   11.6802   -1.5703   16.0166 C   0  0  0  0  0  0  0  0  0  0  0  0
   11.7409   -3.1086   15.9210 C   0  0  0  0  0  0  0  0  0  0  0  0
   12.7828   -3.8735   16.7134 C   0  0  0  0  0  0  0  0  0  0  0  0
   12.7866   -3.4854   18.0079 F   0  0  0  0  0  0  0  0  0  0  0  0
   13.8322   -1.4852   17.1195 N   0  0  0  0  0  0  0  0  0  0  0  0
   15.1364   -1.2001   17.0127 C   0  0  0  0  0  0  0  0  0  0  0  0
   15.8954   -1.5724   10.2622 H   0  0  0  0  0  0  0  0  0  0  0  0
   17.5069   -1.3938    9.5704 H   0  0  0  0  0  0  0  0  0  0  0  0
   16.6988    0.0212   10.1755 H   0  0  0  0  0  0  0  0  0  0  0  0
   18.5205   -2.8806   11.2102 H   0  0  0  0  0  0  0  0  0  0  0  0
   16.9790   -3.2066   11.6439 H   0  0  0  0  0  0  0  0  0  0  0  0
   18.7823   -0.1308   12.4864 H   0  0  0  0  0  0  0  0  0  0  0  0
   15.0980   -0.1575   11.7098 H   0  0  0  0  0  0  0  0  0  0  0  0
   15.0278    0.2479   13.3519 H   0  0  0  0  0  0  0  0  0  0  0  0
   15.0358   -2.5416   12.1179 H   0  0  0  0  0  0  0  0  0  0  0  0
   13.3906   -2.2488   14.3785 H   0  0  0  0  0  0  0  0  0  0  0  0
   12.9602   -2.7613   12.7890 H   0  0  0  0  0  0  0  0  0  0  0  0
   11.7703   -1.0097   13.1736 H   0  0  0  0  0  0  0  0  0  0  0  0
   16.2901   -3.3775   13.8084 H   0  0  0  0  0  0  0  0  0  0  0  0
   15.3698   -2.6390   15.0411 H   0  0  0  0  0  0  0  0  0  0  0  0
   17.9690   -1.8679   14.2487 H   0  0  0  0  0  0  0  0  0  0  0  0
   17.3725    0.5292   15.2291 H   0  0  0  0  0  0  0  0  0  0  0  0
   17.6218   -0.8788   16.2217 H   0  0  0  0  0  0  0  0  0  0  0  0
   14.9634    1.5042   15.0559 H   0  0  0  0  0  0  0  0  0  0  0  0
   12.5731    0.9483   15.2034 H   0  0  0  0  0  0  0  0  0  0  0  0
   10.9319   -1.2254   16.7038 H   0  0  0  0  0  0  0  0  0  0  0  0
   11.2685   -1.2064   15.0720 H   0  0  0  0  0  0  0  0  0  0  0  0
   11.8176   -3.4063   14.8712 H   0  0  0  0  0  0  0  0  0  0  0  0
   10.7695   -3.4990   16.1866 H   0  0  0  0  0  0  0  0  0  0  0  0
   12.5320   -4.9347   16.6900 H   0  0  0  0  0  0  0  0  0  0  0  0
   13.7901   -3.7820   16.3030 H   0  0  0  0  0  0  0  0  0  0  0  0
   15.7975   -1.8846   17.5349 H   0  0  0  0  0  0  0  0  0  0  0  0
  1  2  1  0
  2  3  1  0
  2  4  1  0
  2  5  1  0
  5  6  1  0
  6  7  1  0
  7  8  1  0
  8  9  1  0
  7 10  1  0
 10 11  1  0
 11 12  1  0
 12 13  1  0
 13 14  2  0
 14 15  1  0
 15 16  2  0
 16 17  1  0
 17 18  1  0
 18 19  1  0
 19 20  1  0
 16 21  1  0
 21 22  2  0
 11  5  1  0
 22 13  1  0
  1 23  1  0
  1 24  1  0
  1 25  1  0
  3 26  1  0
  3 27  1  0
  4 28  1  0
  6 29  1  0
  6 30  1  0
  7 31  1  0
  8 32  1  0
  8 33  1  0
  9 34  1  0
 10 35  1  0
 10 36  1  0
 11 37  1  0
 12 38  1  0
 12 39  1  0
 14 40  1  0
 15 41  1  0
 17 42  1  0
 17 43  1  0
 18 44  1  0
 18 45  1  0
 19 46  1  0
 19 47  1  0
 22 48  1  0
M  END
>  <Energy>  (247) 
-29.088081220327357

>  <compound_id>  (247) 
1592

>  <target_id>  (247) 
1

>  <reference_id>  (247) 
12

>  <inspiration_ids>  (247) 
[12, 60]

>  <energy_score>  (247) 
30.108873360461857

>  <distance_score>  (247) 
2.1564991675682

>  <path>  (247) 
/opt/xchem-fragalysis-2/maxwin/BulkDock/SCRATCH/505732/C1592-P12/C1592-P12.minimised.mol

>  <scratch_subdir>  (247) 
/opt/xchem-fragalysis-2/maxwin/BulkDock/SCRATCH/505732/C1592-P12

>  <fragmenstein_runtime>  (247) 
2.445385217666626

>  <fragmenstein_outcome>  (247) 
too moved

>  <fragmenstein_mode>  (247) 
expansion

>  <fragmenstein_error>  (247) 


$$$$
C1592-P60
     RDKit          3D

 48 49  0  0  0  0  0  0  0  0999 V2000
   16.6675   -0.8429   10.2292 C   0  0  0  0  0  0  0  0  0  0  0  0
   17.3205   -1.2036   11.5722 C   0  0  0  0  0  0  0  0  0  0  0  0
   17.5032   -2.6248   11.5870 N   0  0  0  0  0  0  0  0  0  0  0  0
   18.6109   -0.6553   11.5592 O   0  0  0  0  0  0  0  0  0  0  0  0
   16.6585   -0.6333   12.7386 N   0  0  0  0  0  0  0  0  0  0  0  0
   15.1993   -0.6103   12.5870 C   0  0  0  0  0  0  0  0  0  0  0  0
   14.7850   -2.0111   12.9384 C   0  0  0  0  0  0  0  0  0  0  0  0
   13.3403   -2.1620   13.3512 C   0  0  0  0  0  0  0  0  0  0  0  0
   12.5397   -1.0034   13.2313 O   0  0  0  0  0  0  0  0  0  0  0  0
   15.8147   -2.4458   14.0093 C   0  0  0  0  0  0  0  0  0  0  0  0
   16.8870   -1.3479   14.0292 C   0  0  0  0  0  0  0  0  0  0  0  0
   16.8856   -0.3976   15.2922 C   0  0  0  0  0  0  0  0  0  0  0  0
   15.5728   -0.2488   16.0102 C   0  0  0  0  0  0  0  0  0  0  0  0
   14.5575    0.5911   15.5646 C   0  0  0  0  0  0  0  0  0  0  0  0
   13.2303    0.2103   15.7392 C   0  0  0  0  0  0  0  0  0  0  0  0
   13.0023   -0.9757   16.3974 C   0  0  0  0  0  0  0  0  0  0  0  0
   11.7712   -1.8047   16.1867 C   0  0  0  0  0  0  0  0  0  0  0  0
   11.9433   -3.3391   16.1595 C   0  0  0  0  0  0  0  0  0  0  0  0
   13.0809   -3.9782   16.9291 C   0  0  0  0  0  0  0  0  0  0  0  0
   13.0750   -3.5526   18.2145 F   0  0  0  0  0  0  0  0  0  0  0  0
   13.9524   -1.5109   17.1731 N   0  0  0  0  0  0  0  0  0  0  0  0
   15.2277   -1.1607   16.9751 C   0  0  0  0  0  0  0  0  0  0  0  0
   15.7268   -1.3717   10.0422 H   0  0  0  0  0  0  0  0  0  0  0  0
   17.3420   -1.0813    9.3955 H   0  0  0  0  0  0  0  0  0  0  0  0
   16.4966    0.2382   10.1514 H   0  0  0  0  0  0  0  0  0  0  0  0
   18.2270   -2.8072   12.2751 H   0  0  0  0  0  0  0  0  0  0  0  0
   17.9504   -2.8814   10.7103 H   0  0  0  0  0  0  0  0  0  0  0  0
   18.4817    0.1401   12.1040 H   0  0  0  0  0  0  0  0  0  0  0  0
   14.8180   -0.2985   11.6112 H   0  0  0  0  0  0  0  0  0  0  0  0
   14.7836    0.1423   13.2435 H   0  0  0  0  0  0  0  0  0  0  0  0
   14.9218   -2.6614   12.0641 H   0  0  0  0  0  0  0  0  0  0  0  0
   12.8607   -2.9668   12.8004 H   0  0  0  0  0  0  0  0  0  0  0  0
   13.3440   -2.4618   14.3813 H   0  0  0  0  0  0  0  0  0  0  0  0
   11.6038   -1.2905   13.2289 H   0  0  0  0  0  0  0  0  0  0  0  0
   15.3769   -2.6589   14.9796 H   0  0  0  0  0  0  0  0  0  0  0  0
   16.2764   -3.3898   13.7117 H   0  0  0  0  0  0  0  0  0  0  0  0
   17.8920   -1.7879   14.0380 H   0  0  0  0  0  0  0  0  0  0  0  0
   17.2636    0.5934   15.0084 H   0  0  0  0  0  0  0  0  0  0  0  0
   17.6259   -0.7853   16.0059 H   0  0  0  0  0  0  0  0  0  0  0  0
   14.7827    1.4282   14.9077 H   0  0  0  0  0  0  0  0  0  0  0  0
   12.4435    0.7264   15.2005 H   0  0  0  0  0  0  0  0  0  0  0  0
   11.0730   -1.4874   16.9328 H   0  0  0  0  0  0  0  0  0  0  0  0
   11.2625   -1.5137   15.2632 H   0  0  0  0  0  0  0  0  0  0  0  0
   11.9858   -3.6766   15.1226 H   0  0  0  0  0  0  0  0  0  0  0  0
   11.0302   -3.7995   16.5094 H   0  0  0  0  0  0  0  0  0  0  0  0
   12.9498   -5.0623   16.9418 H   0  0  0  0  0  0  0  0  0  0  0  0
   14.0618   -3.8023   16.4837 H   0  0  0  0  0  0  0  0  0  0  0  0
   15.9568   -1.7775   17.4905 H   0  0  0  0  0  0  0  0  0  0  0  0
  1  2  1  0
  2  3  1  0
  2  4  1  0
  2  5  1  0
  5  6  1  0
  6  7  1  0
  7  8  1  0
  8  9  1  0
  7 10  1  0
 10 11  1  0
 11 12  1  0
 12 13  1  0
 13 14  2  0
 14 15  1  0
 15 16  2  0
 16 17  1  0
 17 18  1  0
 18 19  1  0
 19 20  1  0
 16 21  1  0
 21 22  2  0
 11  5  1  0
 22 13  1  0
  1 23  1  0
  1 24  1  0
  1 25  1  0
  3 26  1  0
  3 27  1  0
  4 28  1  0
  6 29  1  0
  6 30  1  0
  7 31  1  0
  8 32  1  0
  8 33  1  0
  9 34  1  0
 10 35  1  0
 10 36  1  0
 11 37  1  0
 12 38  1  0
 12 39  1  0
 14 40  1  0
 15 41  1  0
 17 42  1  0
 17 43  1  0
 18 44  1  0
 18 45  1  0
 19 46  1  0
 19 47  1  0
 22 48  1  0
M  END
>  <Energy>  (248) 
-34.675724986294362

>  <compound_id>  (248) 
1592

>  <target_id>  (248) 
1

>  <reference_id>  (248) 
60

>  <inspiration_ids>  (248) 
[12, 60]

>  <energy_score>  (248) 
24.521229594494613

>  <distance_score>  (248) 
2.11474580374724

>  <path>  (248) 
/opt/xchem-fragalysis-2/maxwin/BulkDock/SCRATCH/505732/C1592-P60/C1592-P60.minimised.mol

>  <scratch_subdir>  (248) 
/opt/xchem-fragalysis-2/maxwin/BulkDock/SCRATCH/505732/C1592-P60

>  <fragmenstein_runtime>  (248) 
2.551851511001587

>  <fragmenstein_outcome>  (248) 
too moved

>  <fragmenstein_mode>  (248) 
expansion

>  <fragmenstein_error>  (248) 


$$$$
C1593-P12
     RDKit          3D

 37 38  0  0  0  0  0  0  0  0999 V2000
   15.5854   -2.1603   11.7429 C   0  0  0  0  0  0  0  0  0  0  0  0
   16.8135   -2.1879   12.6296 C   0  0  0  0  0  0  0  0  0  0  0  0
   17.9077   -2.1286   12.2006 O   0  0  0  0  0  0  0  0  0  0  0  0
   16.3231   -2.2333   14.0639 N   0  0  0  0  0  0  0  0  0  0  0  0
   16.0755   -0.8511   14.5981 C   0  0  0  0  0  0  0  0  0  0  0  0
   15.3584   -0.9011   15.9463 C   0  0  0  0  0  0  0  0  0  0  0  0
   13.9385   -1.4139   15.7791 C   0  0  0  0  0  0  0  0  0  0  0  0
   13.5199   -2.6901   16.1654 C   0  0  0  0  0  0  0  0  0  0  0  0
   12.2173   -3.1184   15.9529 C   0  0  0  0  0  0  0  0  0  0  0  0
   11.8508   -4.3290   16.3862 F   0  0  0  0  0  0  0  0  0  0  0  0
   11.3173   -2.3062   15.2944 C   0  0  0  0  0  0  0  0  0  0  0  0
   10.0741   -2.7294   15.0561 F   0  0  0  0  0  0  0  0  0  0  0  0
   11.6835   -1.0348   14.8908 C   0  0  0  0  0  0  0  0  0  0  0  0
   12.9783   -0.5927   15.1528 C   0  0  0  0  0  0  0  0  0  0  0  0
   13.3371    0.6763   14.7832 O   0  0  0  0  0  0  0  0  0  0  0  0
   16.4787   -1.6594   16.6024 C   0  0  0  0  0  0  0  0  0  0  0  0
   16.2488   -2.4809   17.8758 C   0  0  0  0  0  0  0  0  0  0  0  0
   17.4732   -2.4272   18.7849 C   0  0  0  0  0  0  0  0  0  0  0  0
   15.9766   -3.8530   17.6196 O   0  0  0  0  0  0  0  0  0  0  0  0
   17.0928   -2.3194   15.3692 C   0  0  0  0  0  0  0  0  0  0  0  0
   15.7161   -2.8814   10.9340 H   0  0  0  0  0  0  0  0  0  0  0  0
   15.4704   -1.1572   11.3239 H   0  0  0  0  0  0  0  0  0  0  0  0
   14.6758   -2.4199   12.2901 H   0  0  0  0  0  0  0  0  0  0  0  0
   16.9880   -0.2241   14.5765 H   0  0  0  0  0  0  0  0  0  0  0  0
   15.4402   -0.3588   13.8496 H   0  0  0  0  0  0  0  0  0  0  0  0
   15.2944    0.0991   16.3946 H   0  0  0  0  0  0  0  0  0  0  0  0
   14.1799   -3.4234   16.5913 H   0  0  0  0  0  0  0  0  0  0  0  0
   10.9491   -0.4236   14.3769 H   0  0  0  0  0  0  0  0  0  0  0  0
   12.6112    1.0674   14.2666 H   0  0  0  0  0  0  0  0  0  0  0  0
   17.1977   -0.8771   16.9016 H   0  0  0  0  0  0  0  0  0  0  0  0
   15.4003   -2.0651   18.4317 H   0  0  0  0  0  0  0  0  0  0  0  0
   17.7075   -1.4008   19.0841 H   0  0  0  0  0  0  0  0  0  0  0  0
   17.3062   -3.0162   19.6934 H   0  0  0  0  0  0  0  0  0  0  0  0
   18.3491   -2.8584   18.2875 H   0  0  0  0  0  0  0  0  0  0  0  0
   15.9019   -4.3029   18.4808 H   0  0  0  0  0  0  0  0  0  0  0  0
   18.1252   -1.9725   15.1915 H   0  0  0  0  0  0  0  0  0  0  0  0
   17.2135   -3.3983   15.5279 H   0  0  0  0  0  0  0  0  0  0  0  0
  1  2  1  0
  2  3  2  0
  2  4  1  0
  4  5  1  0
  5  6  1  0
  6  7  1  0
  7  8  2  0
  8  9  1  0
  9 10  1  0
  9 11  2  0
 11 12  1  0
 11 13  1  0
 13 14  2  0
 14 15  1  0
  6 16  1  0
 16 17  1  0
 17 18  1  0
 17 19  1  0
 16 20  1  0
 20  4  1  0
 14  7  1  0
  1 21  1  0
  1 22  1  0
  1 23  1  0
  5 24  1  0
  5 25  1  0
  6 26  1  0
  8 27  1  0
 13 28  1  0
 15 29  1  0
 16 30  1  0
 17 31  1  0
 18 32  1  0
 18 33  1  0
 18 34  1  0
 19 35  1  0
 20 36  1  0
 20 37  1  0
M  END
>  <Energy>  (249) 
102.94613907428911

>  <compound_id>  (249) 
1593

>  <target_id>  (249) 
1

>  <reference_id>  (249) 
12

>  <inspiration_ids>  (249) 
[12, 61]

>  <energy_score>  (249) 
52.94946541059372

>  <distance_score>  (249) 
1.0870565293369285

>  <path>  (249) 
/opt/xchem-fragalysis-2/maxwin/BulkDock/SCRATCH/505732/C1593-P12/C1593-P12.minimised.mol

>  <scratch_subdir>  (249) 
/opt/xchem-fragalysis-2/maxwin/BulkDock/SCRATCH/505732/C1593-P12

>  <fragmenstein_runtime>  (249) 
39.4047532081604

>  <fragmenstein_outcome>  (249) 
too moved

>  <fragmenstein_mode>  (249) 
expansion

>  <fragmenstein_error>  (249) 


$$$$
C1593-P61
     RDKit          3D

 37 38  0  0  0  0  0  0  0  0999 V2000
   15.6898   -2.2576   11.6440 C   0  0  0  0  0  0  0  0  0  0  0  0
   16.8853   -2.3318   12.5724 C   0  0  0  0  0  0  0  0  0  0  0  0
   17.9942   -2.3232   12.1783 O   0  0  0  0  0  0  0  0  0  0  0  0
   16.3476   -2.3352   13.9917 N   0  0  0  0  0  0  0  0  0  0  0  0
   16.1396   -0.9363   14.4976 C   0  0  0  0  0  0  0  0  0  0  0  0
   15.4092   -0.9209   15.8359 C   0  0  0  0  0  0  0  0  0  0  0  0
   13.9763   -1.3956   15.6800 C   0  0  0  0  0  0  0  0  0  0  0  0
   13.5439   -2.6849   16.0053 C   0  0  0  0  0  0  0  0  0  0  0  0
   12.2173   -3.0614   15.8466 C   0  0  0  0  0  0  0  0  0  0  0  0
   11.8332   -4.2811   16.2372 F   0  0  0  0  0  0  0  0  0  0  0  0
   11.3102   -2.1874   15.2815 C   0  0  0  0  0  0  0  0  0  0  0  0
   10.0389   -2.5520   15.0981 F   0  0  0  0  0  0  0  0  0  0  0  0
   11.7007   -0.9140   14.9069 C   0  0  0  0  0  0  0  0  0  0  0  0
   13.0199   -0.5234   15.1238 C   0  0  0  0  0  0  0  0  0  0  0  0
   13.4096    0.7419   14.7748 O   0  0  0  0  0  0  0  0  0  0  0  0
   16.4915   -1.6933   16.5295 C   0  0  0  0  0  0  0  0  0  0  0  0
   16.2098   -2.4389   17.8388 C   0  0  0  0  0  0  0  0  0  0  0  0
   17.4371   -2.4311   18.7448 C   0  0  0  0  0  0  0  0  0  0  0  0
   15.8421   -3.7972   17.6484 O   0  0  0  0  0  0  0  0  0  0  0  0
   17.0740   -2.4323   15.3270 C   0  0  0  0  0  0  0  0  0  0  0  0
   15.8402   -2.9509   10.8136 H   0  0  0  0  0  0  0  0  0  0  0  0
   15.6034   -1.2393   11.2555 H   0  0  0  0  0  0  0  0  0  0  0  0
   14.7582   -2.5226   12.1500 H   0  0  0  0  0  0  0  0  0  0  0  0
   17.0753   -0.3450   14.4694 H   0  0  0  0  0  0  0  0  0  0  0  0
   15.5231   -0.4383   13.7359 H   0  0  0  0  0  0  0  0  0  0  0  0
   15.3779    0.0936   16.2546 H   0  0  0  0  0  0  0  0  0  0  0  0
   14.2156   -3.4598   16.3340 H   0  0  0  0  0  0  0  0  0  0  0  0
   10.9643   -0.2608   14.4509 H   0  0  0  0  0  0  0  0  0  0  0  0
   12.6789    1.1747   14.3002 H   0  0  0  0  0  0  0  0  0  0  0  0
   17.2443   -0.9323   16.7984 H   0  0  0  0  0  0  0  0  0  0  0  0
   15.3922   -1.9391   18.3718 H   0  0  0  0  0  0  0  0  0  0  0  0
   18.2791   -2.9430   18.2656 H   0  0  0  0  0  0  0  0  0  0  0  0
   17.7439   -1.4117   18.9988 H   0  0  0  0  0  0  0  0  0  0  0  0
   17.2326   -2.9679   19.6778 H   0  0  0  0  0  0  0  0  0  0  0  0
   15.6641   -4.1804   18.5261 H   0  0  0  0  0  0  0  0  0  0  0  0
   18.1308   -2.1620   15.1622 H   0  0  0  0  0  0  0  0  0  0  0  0
   17.1132   -3.5116   15.5212 H   0  0  0  0  0  0  0  0  0  0  0  0
  1  2  1  0
  2  3  2  0
  2  4  1  0
  4  5  1  0
  5  6  1  0
  6  7  1  0
  7  8  2  0
  8  9  1  0
  9 10  1  0
  9 11  2  0
 11 12  1  0
 11 13  1  0
 13 14  2  0
 14 15  1  0
  6 16  1  0
 16 17  1  0
 17 18  1  0
 17 19  1  0
 16 20  1  0
 20  4  1  0
 14  7  1  0
  1 21  1  0
  1 22  1  0
  1 23  1  0
  5 24  1  0
  5 25  1  0
  6 26  1  0
  8 27  1  0
 13 28  1  0
 15 29  1  0
 16 30  1  0
 17 31  1  0
 18 32  1  0
 18 33  1  0
 18 34  1  0
 19 35  1  0
 20 36  1  0
 20 37  1  0
M  END
>  <Energy>  (250) 
102.16141504277736

>  <compound_id>  (250) 
1593

>  <target_id>  (250) 
1

>  <reference_id>  (250) 
61

>  <inspiration_ids>  (250) 
[12, 61]

>  <energy_score>  (250) 
52.164741379080795

>  <distance_score>  (250) 
1.1086494008469596

>  <path>  (250) 
/opt/xchem-fragalysis-2/maxwin/BulkDock/SCRATCH/505732/C1593-P61/C1593-P61.minimised.mol

>  <scratch_subdir>  (250) 
/opt/xchem-fragalysis-2/maxwin/BulkDock/SCRATCH/505732/C1593-P61

>  <fragmenstein_runtime>  (250) 
38.174336194992065

>  <fragmenstein_outcome>  (250) 
too moved

>  <fragmenstein_mode>  (250) 
expansion

>  <fragmenstein_error>  (250) 


$$$$
C1594-P12
     RDKit          3D

 46 47  0  0  0  0  0  0  0  0999 V2000
   15.7117    2.9001   14.5991 C   0  0  0  0  0  0  0  0  0  0  0  0
   16.6013    2.5779   15.7806 C   0  0  0  0  0  0  0  0  0  0  0  0
   17.3272    3.3654   16.2654 O   0  0  0  0  0  0  0  0  0  0  0  0
   16.3445    1.1284   16.1418 N   0  0  0  0  0  0  0  0  0  0  0  0
   17.0073    0.2428   17.1520 C   0  0  0  0  0  0  0  0  0  0  0  0
   16.2276   -1.0452   17.3940 C   0  0  0  0  0  0  0  0  0  0  0  0
   16.6108   -2.0988   16.3670 C   0  0  0  0  0  0  0  0  0  0  0  0
   17.5700   -2.9366   17.0092 O   0  0  0  0  0  0  0  0  0  0  0  0
   14.8372   -0.4616   17.4071 C   0  0  0  0  0  0  0  0  0  0  0  0
   13.7387   -1.1290   16.5957 C   0  0  0  0  0  0  0  0  0  0  0  0
   13.1596   -0.4064   15.5201 C   0  0  0  0  0  0  0  0  0  0  0  0
   12.1084   -0.9046   14.7566 C   0  0  0  0  0  0  0  0  0  0  0  0
   11.6187   -2.1615   15.0269 C   0  0  0  0  0  0  0  0  0  0  0  0
   12.1837   -2.9121   16.0529 C   0  0  0  0  0  0  0  0  0  0  0  0
   13.2297   -2.4288   16.8886 C   0  0  0  0  0  0  0  0  0  0  0  0
   13.8034   -3.4234   17.9308 C   0  0  0  0  0  0  0  0  0  0  0  0
   12.9104   -4.5267   18.0129 O   0  0  0  0  0  0  0  0  0  0  0  0
   14.1178   -3.0209   19.3759 C   0  0  0  0  0  0  0  0  0  0  0  0
   15.0280   -4.2487   20.3181 S   0  0  0  0  0  0  0  0  0  0  0  0
   16.5854   -4.4512   19.4972 C   0  0  0  0  0  0  0  0  0  0  0  0
   15.3322   -3.6563   21.6092 O   0  0  0  0  0  0  0  0  0  0  0  0
   14.3302   -5.5189   20.2565 O   0  0  0  0  0  0  0  0  0  0  0  0
   15.2286    1.0053   17.1475 C   0  0  0  0  0  0  0  0  0  0  0  0
   14.8205    3.4249   14.9528 H   0  0  0  0  0  0  0  0  0  0  0  0
   15.4117    1.9968   14.0610 H   0  0  0  0  0  0  0  0  0  0  0  0
   16.2622    3.5399   13.9034 H   0  0  0  0  0  0  0  0  0  0  0  0
   17.2846    0.7893   18.0717 H   0  0  0  0  0  0  0  0  0  0  0  0
   17.9918    0.0154   16.7185 H   0  0  0  0  0  0  0  0  0  0  0  0
   16.4935   -1.4031   18.3958 H   0  0  0  0  0  0  0  0  0  0  0  0
   17.0703   -1.6658   15.4719 H   0  0  0  0  0  0  0  0  0  0  0  0
   15.7944   -2.7370   16.0365 H   0  0  0  0  0  0  0  0  0  0  0  0
   17.9648   -3.4904   16.3093 H   0  0  0  0  0  0  0  0  0  0  0  0
   14.4343   -0.4272   18.4260 H   0  0  0  0  0  0  0  0  0  0  0  0
   13.5277    0.5723   15.2254 H   0  0  0  0  0  0  0  0  0  0  0  0
   11.6844   -0.3234   13.9406 H   0  0  0  0  0  0  0  0  0  0  0  0
   10.8176   -2.5822   14.4266 H   0  0  0  0  0  0  0  0  0  0  0  0
   11.7915   -3.9223   16.1814 H   0  0  0  0  0  0  0  0  0  0  0  0
   14.7074   -3.8273   17.4746 H   0  0  0  0  0  0  0  0  0  0  0  0
   12.1675   -4.3152   18.6221 H   0  0  0  0  0  0  0  0  0  0  0  0
   14.6951   -2.1080   19.4760 H   0  0  0  0  0  0  0  0  0  0  0  0
   13.2028   -2.9183   19.9607 H   0  0  0  0  0  0  0  0  0  0  0  0
   16.4270   -4.8318   18.4903 H   0  0  0  0  0  0  0  0  0  0  0  0
   17.1015   -3.4911   19.4918 H   0  0  0  0  0  0  0  0  0  0  0  0
   17.1724   -5.1745   20.0683 H   0  0  0  0  0  0  0  0  0  0  0  0
   15.4555    1.5648   18.0762 H   0  0  0  0  0  0  0  0  0  0  0  0
   14.3808    1.5849   16.7631 H   0  0  0  0  0  0  0  0  0  0  0  0
  1  2  1  0
  2  3  2  0
  2  4  1  0
  4  5  1  0
  5  6  1  0
  6  7  1  0
  7  8  1  0
  6  9  1  0
  9 10  1  0
 10 11  2  0
 11 12  1  0
 12 13  2  0
 13 14  1  0
 14 15  2  0
 15 16  1  0
 16 17  1  0
 16 18  1  0
 18 19  1  0
 19 20  1  0
 19 21  2  0
 19 22  2  0
  9 23  1  0
 23  4  1  0
 15 10  1  0
  1 24  1  0
  1 25  1  0
  1 26  1  0
  5 27  1  0
  5 28  1  0
  6 29  1  0
  7 30  1  0
  7 31  1  0
  8 32  1  0
  9 33  1  0
 11 34  1  0
 12 35  1  0
 13 36  1  0
 14 37  1  0
 16 38  1  0
 17 39  1  0
 18 40  1  0
 18 41  1  0
 20 42  1  0
 20 43  1  0
 20 44  1  0
 23 45  1  0
 23 46  1  0
M  END
>  <Energy>  (251) 
114.56852543618652

>  <compound_id>  (251) 
1594

>  <target_id>  (251) 
1

>  <reference_id>  (251) 
12

>  <inspiration_ids>  (251) 
[12, 63]

>  <energy_score>  (251) 
3.757310141501023

>  <distance_score>  (251) 
3.286808506571588

>  <path>  (251) 
/opt/xchem-fragalysis-2/maxwin/BulkDock/SCRATCH/505732/C1594-P12/C1594-P12.minimised.mol

>  <scratch_subdir>  (251) 
/opt/xchem-fragalysis-2/maxwin/BulkDock/SCRATCH/505732/C1594-P12

>  <fragmenstein_runtime>  (251) 
7.312411069869995

>  <fragmenstein_outcome>  (251) 
too moved

>  <fragmenstein_mode>  (251) 
expansion

>  <fragmenstein_error>  (251) 


$$$$
C1594-P63
     RDKit          3D

 46 47  0  0  0  0  0  0  0  0999 V2000
   14.9974   -2.0136   11.8751 C   0  0  0  0  0  0  0  0  0  0  0  0
   16.3290   -1.7175   12.5337 C   0  0  0  0  0  0  0  0  0  0  0  0
   17.2966   -1.4853   11.8569 O   0  0  0  0  0  0  0  0  0  0  0  0
   16.1694   -1.7276   13.9513 N   0  0  0  0  0  0  0  0  0  0  0  0
   17.1794   -1.5619   15.0558 C   0  0  0  0  0  0  0  0  0  0  0  0
   16.6599   -0.9298   16.3405 C   0  0  0  0  0  0  0  0  0  0  0  0
   17.0379   -1.6229   17.6281 C   0  0  0  0  0  0  0  0  0  0  0  0
   16.4180   -0.9941   18.7373 O   0  0  0  0  0  0  0  0  0  0  0  0
   15.2929   -0.4475   15.9211 C   0  0  0  0  0  0  0  0  0  0  0  0
   13.8689   -1.0326   15.9024 C   0  0  0  0  0  0  0  0  0  0  0  0
   12.9089   -0.0839   15.4308 C   0  0  0  0  0  0  0  0  0  0  0  0
   11.5919   -0.4117   15.1184 C   0  0  0  0  0  0  0  0  0  0  0  0
   11.1658   -1.7108   15.2871 C   0  0  0  0  0  0  0  0  0  0  0  0
   12.0400   -2.6509   15.8172 C   0  0  0  0  0  0  0  0  0  0  0  0
   13.3822   -2.3342   16.1610 C   0  0  0  0  0  0  0  0  0  0  0  0
   14.1091   -3.4501   16.8903 C   0  0  0  0  0  0  0  0  0  0  0  0
   15.3902   -3.6429   16.3436 O   0  0  0  0  0  0  0  0  0  0  0  0
   14.0325   -3.1460   18.3797 C   0  0  0  0  0  0  0  0  0  0  0  0
   14.9259   -4.2449   19.4349 S   0  0  0  0  0  0  0  0  0  0  0  0
   13.8481   -4.4072   20.8397 C   0  0  0  0  0  0  0  0  0  0  0  0
   14.9995   -5.5479   18.8046 O   0  0  0  0  0  0  0  0  0  0  0  0
   16.1269   -3.5744   19.9048 O   0  0  0  0  0  0  0  0  0  0  0  0
   15.7413   -0.3634   14.4389 C   0  0  0  0  0  0  0  0  0  0  0  0
   14.2304   -2.2921   12.6025 H   0  0  0  0  0  0  0  0  0  0  0  0
   15.1223   -2.8375   11.1696 H   0  0  0  0  0  0  0  0  0  0  0  0
   14.6609   -1.1217   11.3393 H   0  0  0  0  0  0  0  0  0  0  0  0
   18.0623   -1.0331   14.6594 H   0  0  0  0  0  0  0  0  0  0  0  0
   17.5491   -2.5779   15.2454 H   0  0  0  0  0  0  0  0  0  0  0  0
   17.2408    0.0078   16.4341 H   0  0  0  0  0  0  0  0  0  0  0  0
   18.1223   -1.5430   17.7748 H   0  0  0  0  0  0  0  0  0  0  0  0
   16.8280   -2.6854   17.6420 H   0  0  0  0  0  0  0  0  0  0  0  0
   16.5823   -1.5986   19.4935 H   0  0  0  0  0  0  0  0  0  0  0  0
   15.1799    0.5643   16.3376 H   0  0  0  0  0  0  0  0  0  0  0  0
   13.2140    0.9470   15.2418 H   0  0  0  0  0  0  0  0  0  0  0  0
   10.9193    0.3322   14.6980 H   0  0  0  0  0  0  0  0  0  0  0  0
   10.1575   -1.9944   14.9978 H   0  0  0  0  0  0  0  0  0  0  0  0
   11.6582   -3.6614   15.9686 H   0  0  0  0  0  0  0  0  0  0  0  0
   13.5914   -4.4016   16.7174 H   0  0  0  0  0  0  0  0  0  0  0  0
   15.3368   -3.4852   15.3807 H   0  0  0  0  0  0  0  0  0  0  0  0
   12.9871   -3.2389   18.6807 H   0  0  0  0  0  0  0  0  0  0  0  0
   14.3378   -2.1299   18.6295 H   0  0  0  0  0  0  0  0  0  0  0  0
   12.9129   -4.8685   20.5190 H   0  0  0  0  0  0  0  0  0  0  0  0
   14.3423   -5.0463   21.5745 H   0  0  0  0  0  0  0  0  0  0  0  0
   13.6717   -3.4178   21.2645 H   0  0  0  0  0  0  0  0  0  0  0  0
   16.5022    0.4143   14.2300 H   0  0  0  0  0  0  0  0  0  0  0  0
   14.9110   -0.0507   13.7901 H   0  0  0  0  0  0  0  0  0  0  0  0
  1  2  1  0
  2  3  2  0
  2  4  1  0
  4  5  1  0
  5  6  1  0
  6  7  1  0
  7  8  1  0
  6  9  1  0
  9 10  1  0
 10 11  2  0
 11 12  1  0
 12 13  2  0
 13 14  1  0
 14 15  2  0
 15 16  1  0
 16 17  1  0
 16 18  1  0
 18 19  1  0
 19 20  1  0
 19 21  2  0
 19 22  2  0
  9 23  1  0
 23  4  1  0
 15 10  1  0
  1 24  1  0
  1 25  1  0
  1 26  1  0
  5 27  1  0
  5 28  1  0
  6 29  1  0
  7 30  1  0
  7 31  1  0
  8 32  1  0
  9 33  1  0
 11 34  1  0
 12 35  1  0
 13 36  1  0
 14 37  1  0
 16 38  1  0
 17 39  1  0
 18 40  1  0
 18 41  1  0
 20 42  1  0
 20 43  1  0
 20 44  1  0
 23 45  1  0
 23 46  1  0
M  END
>  <Energy>  (252) 
111.51091623610749

>  <compound_id>  (252) 
1594

>  <target_id>  (252) 
1

>  <reference_id>  (252) 
63

>  <inspiration_ids>  (252) 
[12, 63]

>  <energy_score>  (252) 
41.46312288132424

>  <distance_score>  (252) 
1.1473580309992812

>  <path>  (252) 
/opt/xchem-fragalysis-2/maxwin/BulkDock/SCRATCH/505732/C1594-P63/C1594-P63.minimised.mol

>  <scratch_subdir>  (252) 
/opt/xchem-fragalysis-2/maxwin/BulkDock/SCRATCH/505732/C1594-P63

>  <fragmenstein_runtime>  (252) 
6.9042932987213135

>  <fragmenstein_outcome>  (252) 
too moved

>  <fragmenstein_mode>  (252) 
expansion

>  <fragmenstein_error>  (252) 


$$$$
C1595-P12
     RDKit          3D

 54 56  0  0  0  0  0  0  0  0999 V2000
   15.5242   -2.0793   11.7684 C   0  0  0  0  0  0  0  0  0  0  0  0
   16.7357   -1.6814   12.5877 C   0  0  0  0  0  0  0  0  0  0  0  0
   17.7710   -1.4133   12.0358 O   0  0  0  0  0  0  0  0  0  0  0  0
   16.3871   -1.6513   13.9702 N   0  0  0  0  0  0  0  0  0  0  0  0
   17.2224   -1.3851   15.1840 C   0  0  0  0  0  0  0  0  0  0  0  0
   16.4413   -0.9122   16.4058 C   0  0  0  0  0  0  0  0  0  0  0  0
   16.3519   -1.9208   17.5379 C   0  0  0  0  0  0  0  0  0  0  0  0
   15.5495   -1.4245   18.5950 O   0  0  0  0  0  0  0  0  0  0  0  0
   15.2256   -0.3051   15.7427 C   0  0  0  0  0  0  0  0  0  0  0  0
   13.8441   -0.9382   15.6852 C   0  0  0  0  0  0  0  0  0  0  0  0
   13.6534   -2.3228   15.8103 C   0  0  0  0  0  0  0  0  0  0  0  0
   12.3888   -2.9068   15.6950 C   0  0  0  0  0  0  0  0  0  0  0  0
   11.2891   -2.1345   15.3624 C   0  0  0  0  0  0  0  0  0  0  0  0
   11.4338   -0.7615   15.2351 C   0  0  0  0  0  0  0  0  0  0  0  0
   12.6934   -0.1591   15.3983 C   0  0  0  0  0  0  0  0  0  0  0  0
   12.6819    1.3304   15.2737 C   0  0  0  0  0  0  0  0  0  0  0  0
   11.9794    1.9119   16.0559 O   0  0  0  0  0  0  0  0  0  0  0  0
   13.5050    1.8248   14.2246 N   0  0  0  0  0  0  0  0  0  0  0  0
   12.7158    1.8843   12.9226 C   0  0  0  0  0  0  0  0  0  0  0  0
   13.5085    1.8111   11.6049 C   0  0  0  0  0  0  0  0  0  0  0  0
   14.9382    2.3035   11.7627 C   0  0  0  0  0  0  0  0  0  0  0  0
   15.5784    2.7044   10.4370 C   0  0  0  0  0  0  0  0  0  0  0  0
   15.6280    1.5815    9.5657 O   0  0  0  0  0  0  0  0  0  0  0  0
   14.9597    3.4171   12.7897 C   0  0  0  0  0  0  0  0  0  0  0  0
   13.8484    3.2337   13.8285 C   0  0  0  0  0  0  0  0  0  0  0  0
   15.8215   -0.3033   14.3358 C   0  0  0  0  0  0  0  0  0  0  0  0
   15.8107   -2.8652   11.0659 H   0  0  0  0  0  0  0  0  0  0  0  0
   15.1689   -1.2081   11.2116 H   0  0  0  0  0  0  0  0  0  0  0  0
   14.7092   -2.4513   12.3944 H   0  0  0  0  0  0  0  0  0  0  0  0
   18.0625   -0.7170   14.9270 H   0  0  0  0  0  0  0  0  0  0  0  0
   17.7154   -2.3433   15.3963 H   0  0  0  0  0  0  0  0  0  0  0  0
   17.0152   -0.0728   16.8300 H   0  0  0  0  0  0  0  0  0  0  0  0
   15.9972   -2.9082   17.2399 H   0  0  0  0  0  0  0  0  0  0  0  0
   17.3551   -2.0833   17.9492 H   0  0  0  0  0  0  0  0  0  0  0  0
   14.6203   -1.4458   18.3072 H   0  0  0  0  0  0  0  0  0  0  0  0
   15.1104    0.7184   16.1186 H   0  0  0  0  0  0  0  0  0  0  0  0
   14.4887   -3.0016   15.9358 H   0  0  0  0  0  0  0  0  0  0  0  0
   12.2773   -3.9812   15.8145 H   0  0  0  0  0  0  0  0  0  0  0  0
   10.3285   -2.5994   15.1654 H   0  0  0  0  0  0  0  0  0  0  0  0
   10.5661   -0.1572   14.9743 H   0  0  0  0  0  0  0  0  0  0  0  0
   11.8912    2.6196   12.9114 H   0  0  0  0  0  0  0  0  0  0  0  0
   12.1267    0.9531   12.9168 H   0  0  0  0  0  0  0  0  0  0  0  0
   12.9687    2.3880   10.8440 H   0  0  0  0  0  0  0  0  0  0  0  0
   13.5290    0.7752   11.2466 H   0  0  0  0  0  0  0  0  0  0  0  0
   15.5247    1.4668   12.1572 H   0  0  0  0  0  0  0  0  0  0  0  0
   15.0017    3.4921    9.9414 H   0  0  0  0  0  0  0  0  0  0  0  0
   16.5988    3.0740   10.5840 H   0  0  0  0  0  0  0  0  0  0  0  0
   16.2872    0.9619    9.9293 H   0  0  0  0  0  0  0  0  0  0  0  0
   15.9391    3.4271   13.2846 H   0  0  0  0  0  0  0  0  0  0  0  0
   14.8417    4.4013   12.3203 H   0  0  0  0  0  0  0  0  0  0  0  0
   13.0008    3.9329   13.7183 H   0  0  0  0  0  0  0  0  0  0  0  0
   14.2785    3.6269   14.7642 H   0  0  0  0  0  0  0  0  0  0  0  0
   15.0316   -0.1221   13.5981 H   0  0  0  0  0  0  0  0  0  0  0  0
   16.5428    0.5149   14.1550 H   0  0  0  0  0  0  0  0  0  0  0  0
  1  2  1  0
  2  3  2  0
  2  4  1  0
  4  5  1  0
  5  6  1  0
  6  7  1  0
  7  8  1  0
  6  9  1  0
  9 10  1  0
 10 11  2  0
 11 12  1  0
 12 13  2  0
 13 14  1  0
 14 15  2  0
 15 16  1  0
 16 17  2  0
 16 18  1  0
 18 19  1  0
 19 20  1  0
 20 21  1  0
 21 22  1  0
 22 23  1  0
 21 24  1  0
 24 25  1  0
  9 26  1  0
 26  4  1  0
 15 10  1  0
 25 18  1  0
  1 27  1  0
  1 28  1  0
  1 29  1  0
  5 30  1  0
  5 31  1  0
  6 32  1  0
  7 33  1  0
  7 34  1  0
  8 35  1  0
  9 36  1  0
 11 37  1  0
 12 38  1  0
 13 39  1  0
 14 40  1  0
 19 41  1  0
 19 42  1  0
 20 43  1  0
 20 44  1  0
 21 45  1  0
 22 46  1  0
 22 47  1  0
 23 48  1  0
 24 49  1  0
 24 50  1  0
 25 51  1  0
 25 52  1  0
 26 53  1  0
 26 54  1  0
M  END
>  <Energy>  (253) 
175.19063808035503

>  <compound_id>  (253) 
1595

>  <target_id>  (253) 
1

>  <reference_id>  (253) 
12

>  <inspiration_ids>  (253) 
[12, 66]

>  <energy_score>  (253) 
68.11786722643467

>  <distance_score>  (253) 
1.8524184598013005

>  <path>  (253) 
/opt/xchem-fragalysis-2/maxwin/BulkDock/SCRATCH/505732/C1595-P12/C1595-P12.minimised.mol

>  <scratch_subdir>  (253) 
/opt/xchem-fragalysis-2/maxwin/BulkDock/SCRATCH/505732/C1595-P12

>  <fragmenstein_runtime>  (253) 
5.511214733123779

>  <fragmenstein_outcome>  (253) 
too moved

>  <fragmenstein_mode>  (253) 
expansion

>  <fragmenstein_error>  (253) 


$$$$
C1595-P66
     RDKit          3D

 54 56  0  0  0  0  0  0  0  0999 V2000
   16.7051   -2.2045   11.6056 C   0  0  0  0  0  0  0  0  0  0  0  0
   17.7737   -2.2842   12.6781 C   0  0  0  0  0  0  0  0  0  0  0  0
   18.9258   -2.4440   12.3714 O   0  0  0  0  0  0  0  0  0  0  0  0
   17.1718   -2.1076   13.9569 N   0  0  0  0  0  0  0  0  0  0  0  0
   17.7602   -2.1743   15.3336 C   0  0  0  0  0  0  0  0  0  0  0  0
   16.9668   -1.4336   16.4029 C   0  0  0  0  0  0  0  0  0  0  0  0
   16.2173   -2.3108   17.3903 C   0  0  0  0  0  0  0  0  0  0  0  0
   15.4850   -1.5117   18.3067 O   0  0  0  0  0  0  0  0  0  0  0  0
   16.2554   -0.4096   15.5523 C   0  0  0  0  0  0  0  0  0  0  0  0
   14.7804   -0.4866   15.1858 C   0  0  0  0  0  0  0  0  0  0  0  0
   14.1245   -1.7152   15.0038 C   0  0  0  0  0  0  0  0  0  0  0  0
   12.7788   -1.7869   14.6284 C   0  0  0  0  0  0  0  0  0  0  0  0
   12.0586   -0.6263   14.3918 C   0  0  0  0  0  0  0  0  0  0  0  0
   12.6800    0.6070   14.5393 C   0  0  0  0  0  0  0  0  0  0  0  0
   14.0313    0.6830   14.9180 C   0  0  0  0  0  0  0  0  0  0  0  0
   14.5851    2.0653   15.0224 C   0  0  0  0  0  0  0  0  0  0  0  0
   14.0550    2.7976   15.8135 O   0  0  0  0  0  0  0  0  0  0  0  0
   15.6808    2.2905   14.1417 N   0  0  0  0  0  0  0  0  0  0  0  0
   15.1765    2.7937   12.7949 C   0  0  0  0  0  0  0  0  0  0  0  0
   16.0604    2.5154   11.5653 C   0  0  0  0  0  0  0  0  0  0  0  0
   17.5299    2.3789   11.9348 C   0  0  0  0  0  0  0  0  0  0  0  0
   18.4640    2.6105   10.7502 C   0  0  0  0  0  0  0  0  0  0  0  0
   18.2167    1.6392    9.7420 O   0  0  0  0  0  0  0  0  0  0  0  0
   17.8271    3.2977   13.1033 C   0  0  0  0  0  0  0  0  0  0  0  0
   16.5954    3.4742   13.9975 C   0  0  0  0  0  0  0  0  0  0  0  0
   17.0966   -0.6398   14.3003 C   0  0  0  0  0  0  0  0  0  0  0  0
   16.8710   -3.0020   10.8764 H   0  0  0  0  0  0  0  0  0  0  0  0
   16.7714   -1.2339   11.1060 H   0  0  0  0  0  0  0  0  0  0  0  0
   15.7004   -2.3231   12.0216 H   0  0  0  0  0  0  0  0  0  0  0  0
   18.8235   -1.8804   15.3060 H   0  0  0  0  0  0  0  0  0  0  0  0
   17.7982   -3.2471   15.5671 H   0  0  0  0  0  0  0  0  0  0  0  0
   17.7037   -0.8870   17.0124 H   0  0  0  0  0  0  0  0  0  0  0  0
   15.5471   -3.0384   16.9306 H   0  0  0  0  0  0  0  0  0  0  0  0
   16.9378   -2.8932   17.9757 H   0  0  0  0  0  0  0  0  0  0  0  0
   14.7557   -1.0918   17.8189 H   0  0  0  0  0  0  0  0  0  0  0  0
   16.4589    0.5782   15.9803 H   0  0  0  0  0  0  0  0  0  0  0  0
   14.6676   -2.6493   15.1046 H   0  0  0  0  0  0  0  0  0  0  0  0
   12.2914   -2.7500   14.4962 H   0  0  0  0  0  0  0  0  0  0  0  0
   11.0144   -0.6792   14.0954 H   0  0  0  0  0  0  0  0  0  0  0  0
   12.1116    1.5171   14.3586 H   0  0  0  0  0  0  0  0  0  0  0  0
   14.7259    3.8023   12.8089 H   0  0  0  0  0  0  0  0  0  0  0  0
   14.2720    2.1954   12.5991 H   0  0  0  0  0  0  0  0  0  0  0  0
   15.9054    3.3233   10.8396 H   0  0  0  0  0  0  0  0  0  0  0  0
   15.7277    1.5931   11.0718 H   0  0  0  0  0  0  0  0  0  0  0  0
   17.6829    1.3458   12.2669 H   0  0  0  0  0  0  0  0  0  0  0  0
   18.3070    3.6013   10.3112 H   0  0  0  0  0  0  0  0  0  0  0  0
   19.5144    2.5382   11.0515 H   0  0  0  0  0  0  0  0  0  0  0  0
   18.5743    0.7915   10.0626 H   0  0  0  0  0  0  0  0  0  0  0  0
   18.6571    2.8774   13.6854 H   0  0  0  0  0  0  0  0  0  0  0  0
   18.1583    4.2868   12.7644 H   0  0  0  0  0  0  0  0  0  0  0  0
   16.1108    4.4633   13.9199 H   0  0  0  0  0  0  0  0  0  0  0  0
   17.0052    3.5612   15.0173 H   0  0  0  0  0  0  0  0  0  0  0  0
   16.6099   -0.1631   13.4402 H   0  0  0  0  0  0  0  0  0  0  0  0
   18.0951   -0.1663   14.3316 H   0  0  0  0  0  0  0  0  0  0  0  0
  1  2  1  0
  2  3  2  0
  2  4  1  0
  4  5  1  0
  5  6  1  0
  6  7  1  0
  7  8  1  0
  6  9  1  0
  9 10  1  0
 10 11  2  0
 11 12  1  0
 12 13  2  0
 13 14  1  0
 14 15  2  0
 15 16  1  0
 16 17  2  0
 16 18  1  0
 18 19  1  0
 19 20  1  0
 20 21  1  0
 21 22  1  0
 22 23  1  0
 21 24  1  0
 24 25  1  0
  9 26  1  0
 26  4  1  0
 15 10  1  0
 25 18  1  0
  1 27  1  0
  1 28  1  0
  1 29  1  0
  5 30  1  0
  5 31  1  0
  6 32  1  0
  7 33  1  0
  7 34  1  0
  8 35  1  0
  9 36  1  0
 11 37  1  0
 12 38  1  0
 13 39  1  0
 14 40  1  0
 19 41  1  0
 19 42  1  0
 20 43  1  0
 20 44  1  0
 21 45  1  0
 22 46  1  0
 22 47  1  0
 23 48  1  0
 24 49  1  0
 24 50  1  0
 25 51  1  0
 25 52  1  0
 26 53  1  0
 26 54  1  0
M  END
>  <Energy>  (254) 
172.25301671008972

>  <compound_id>  (254) 
1595

>  <target_id>  (254) 
1

>  <reference_id>  (254) 
66

>  <inspiration_ids>  (254) 
[12, 66]

>  <energy_score>  (254) 
65.18024585616803

>  <distance_score>  (254) 
2.4333382482268524

>  <path>  (254) 
/opt/xchem-fragalysis-2/maxwin/BulkDock/SCRATCH/505732/C1595-P66/C1595-P66.minimised.mol

>  <scratch_subdir>  (254) 
/opt/xchem-fragalysis-2/maxwin/BulkDock/SCRATCH/505732/C1595-P66

>  <fragmenstein_runtime>  (254) 
5.716052293777466

>  <fragmenstein_outcome>  (254) 
too moved

>  <fragmenstein_mode>  (254) 
expansion

>  <fragmenstein_error>  (254) 


$$$$
C1590-P12
     RDKit          3D

 33 34  0  0  0  0  0  0  0  0999 V2000
   18.0740   -2.7667   13.0606 C   0  0  0  0  0  0  0  0  0  0  0  0
   18.1210   -1.4918   13.8719 C   0  0  0  0  0  0  0  0  0  0  0  0
   18.7803   -0.5585   13.4974 O   0  0  0  0  0  0  0  0  0  0  0  0
   17.3198   -1.6506   15.0394 N   0  0  0  0  0  0  0  0  0  0  0  0
   17.1303   -0.7591   16.2186 C   0  0  0  0  0  0  0  0  0  0  0  0
   15.9564   -1.1953   17.0692 C   0  0  0  0  0  0  0  0  0  0  0  0
   16.2747   -2.4883   17.8246 C   0  0  0  0  0  0  0  0  0  0  0  0
   15.1589   -2.8826   18.6105 O   0  0  0  0  0  0  0  0  0  0  0  0
   14.9488   -1.3956   15.9617 C   0  0  0  0  0  0  0  0  0  0  0  0
   13.7866   -0.4100   15.8869 C   0  0  0  0  0  0  0  0  0  0  0  0
   14.0286    0.9625   16.1000 C   0  0  0  0  0  0  0  0  0  0  0  0
   13.0280    1.9221   15.9265 C   0  0  0  0  0  0  0  0  0  0  0  0
   11.7583    1.5418   15.5165 C   0  0  0  0  0  0  0  0  0  0  0  0
   11.4806    0.1963   15.3145 C   0  0  0  0  0  0  0  0  0  0  0  0
   12.4755   -0.7732   15.5192 C   0  0  0  0  0  0  0  0  0  0  0  0
   11.8274   -2.7250   15.2710 I   0  0  0  0  0  0  0  0  0  0  0  0
   15.8930   -1.2140   14.7616 C   0  0  0  0  0  0  0  0  0  0  0  0
   17.3707   -2.6415   12.2332 H   0  0  0  0  0  0  0  0  0  0  0  0
   17.7708   -3.6182   13.6761 H   0  0  0  0  0  0  0  0  0  0  0  0
   19.0720   -2.9769   12.6651 H   0  0  0  0  0  0  0  0  0  0  0  0
   18.0608   -0.8533   16.7955 H   0  0  0  0  0  0  0  0  0  0  0  0
   17.1246    0.3058   15.9297 H   0  0  0  0  0  0  0  0  0  0  0  0
   15.6681   -0.4296   17.7971 H   0  0  0  0  0  0  0  0  0  0  0  0
   16.5121   -3.3135   17.1447 H   0  0  0  0  0  0  0  0  0  0  0  0
   17.1316   -2.3523   18.4931 H   0  0  0  0  0  0  0  0  0  0  0  0
   15.0604   -2.2442   19.3387 H   0  0  0  0  0  0  0  0  0  0  0  0
   14.5902   -2.4269   15.9879 H   0  0  0  0  0  0  0  0  0  0  0  0
   15.0151    1.3236   16.3817 H   0  0  0  0  0  0  0  0  0  0  0  0
   13.2496    2.9737   16.0962 H   0  0  0  0  0  0  0  0  0  0  0  0
   10.9870    2.2910   15.3605 H   0  0  0  0  0  0  0  0  0  0  0  0
   10.4809   -0.0863   14.9853 H   0  0  0  0  0  0  0  0  0  0  0  0
   15.8823   -0.2061   14.3088 H   0  0  0  0  0  0  0  0  0  0  0  0
   15.5303   -1.8585   13.9465 H   0  0  0  0  0  0  0  0  0  0  0  0
  1  2  1  0
  2  3  2  0
  2  4  1  0
  4  5  1  0
  5  6  1  0
  6  7  1  0
  7  8  1  0
  6  9  1  0
  9 10  1  0
 10 11  2  0
 11 12  1  0
 12 13  2  0
 13 14  1  0
 14 15  2  0
 15 16  1  0
  9 17  1  0
 17  4  1  0
 15 10  1  0
  1 18  1  0
  1 19  1  0
  1 20  1  0
  5 21  1  0
  5 22  1  0
  6 23  1  0
  7 24  1  0
  7 25  1  0
  8 26  1  0
  9 27  1  0
 11 28  1  0
 12 29  1  0
 13 30  1  0
 14 31  1  0
 17 32  1  0
 17 33  1  0
M  END
>  <Energy>  (255) 
86.45210642197128

>  <compound_id>  (255) 
1590

>  <target_id>  (255) 
1

>  <reference_id>  (255) 
12

>  <inspiration_ids>  (255) 
[12, 71]

>  <energy_score>  (255) 
38.159930853763896

>  <distance_score>  (255) 
2.450817523184709

>  <path>  (255) 
/opt/xchem-fragalysis-2/maxwin/BulkDock/SCRATCH/505732/C1590-P12/C1590-P12.minimised.mol

>  <scratch_subdir>  (255) 
/opt/xchem-fragalysis-2/maxwin/BulkDock/SCRATCH/505732/C1590-P12

>  <fragmenstein_runtime>  (255) 
11.510764360427856

>  <fragmenstein_outcome>  (255) 
too moved

>  <fragmenstein_mode>  (255) 
expansion

>  <fragmenstein_error>  (255) 


$$$$
C1590-P71
     RDKit          3D

 33 34  0  0  0  0  0  0  0  0999 V2000
   15.1668   -2.1368   11.9228 C   0  0  0  0  0  0  0  0  0  0  0  0
   16.4655   -2.2824   12.6887 C   0  0  0  0  0  0  0  0  0  0  0  0
   17.5149   -2.3183   12.1570 O   0  0  0  0  0  0  0  0  0  0  0  0
   16.1106   -2.3177   14.1643 N   0  0  0  0  0  0  0  0  0  0  0  0
   16.9858   -2.5118   15.3840 C   0  0  0  0  0  0  0  0  0  0  0  0
   16.6135   -1.7769   16.6666 C   0  0  0  0  0  0  0  0  0  0  0  0
   16.5025   -2.5610   17.9538 C   0  0  0  0  0  0  0  0  0  0  0  0
   17.5944   -2.2252   18.8087 O   0  0  0  0  0  0  0  0  0  0  0  0
   15.4802   -0.9405   16.1702 C   0  0  0  0  0  0  0  0  0  0  0  0
   13.9742   -1.1868   16.0751 C   0  0  0  0  0  0  0  0  0  0  0  0
   13.2714   -0.0065   15.7278 C   0  0  0  0  0  0  0  0  0  0  0  0
   11.9340   -0.0034   15.3355 C   0  0  0  0  0  0  0  0  0  0  0  0
   11.2361   -1.1921   15.2780 C   0  0  0  0  0  0  0  0  0  0  0  0
   11.8643   -2.3618   15.6819 C   0  0  0  0  0  0  0  0  0  0  0  0
   13.2057   -2.3591   16.1253 C   0  0  0  0  0  0  0  0  0  0  0  0
   13.7772   -4.1698   16.9249 I   0  0  0  0  0  0  0  0  0  0  0  0
   16.0527   -0.9314   14.7435 C   0  0  0  0  0  0  0  0  0  0  0  0
   14.2908   -2.2434   12.5679 H   0  0  0  0  0  0  0  0  0  0  0  0
   15.1214   -2.9073   11.1500 H   0  0  0  0  0  0  0  0  0  0  0  0
   15.1389   -1.1484   11.4562 H   0  0  0  0  0  0  0  0  0  0  0  0
   16.9679   -3.5971   15.5488 H   0  0  0  0  0  0  0  0  0  0  0  0
   18.0307   -2.3118   15.0926 H   0  0  0  0  0  0  0  0  0  0  0  0
   17.4531   -1.0783   16.8324 H   0  0  0  0  0  0  0  0  0  0  0  0
   15.6041   -2.2863   18.5117 H   0  0  0  0  0  0  0  0  0  0  0  0
   16.5478   -3.6418   17.8090 H   0  0  0  0  0  0  0  0  0  0  0  0
   18.3826   -2.6951   18.4850 H   0  0  0  0  0  0  0  0  0  0  0  0
   15.6002    0.0509   16.6309 H   0  0  0  0  0  0  0  0  0  0  0  0
   13.7917    0.9523   15.6963 H   0  0  0  0  0  0  0  0  0  0  0  0
   11.4552    0.9246   15.0333 H   0  0  0  0  0  0  0  0  0  0  0  0
   10.2088   -1.2126   14.9235 H   0  0  0  0  0  0  0  0  0  0  0  0
   11.2870   -3.2853   15.6522 H   0  0  0  0  0  0  0  0  0  0  0  0
   17.0152   -0.3948   14.6278 H   0  0  0  0  0  0  0  0  0  0  0  0
   15.3912   -0.3599   14.0758 H   0  0  0  0  0  0  0  0  0  0  0  0
  1  2  1  0
  2  3  2  0
  2  4  1  0
  4  5  1  0
  5  6  1  0
  6  7  1  0
  7  8  1  0
  6  9  1  0
  9 10  1  0
 10 11  2  0
 11 12  1  0
 12 13  2  0
 13 14  1  0
 14 15  2  0
 15 16  1  0
  9 17  1  0
 17  4  1  0
 15 10  1  0
  1 18  1  0
  1 19  1  0
  1 20  1  0
  5 21  1  0
  5 22  1  0
  6 23  1  0
  7 24  1  0
  7 25  1  0
  8 26  1  0
  9 27  1  0
 11 28  1  0
 12 29  1  0
 13 30  1  0
 14 31  1  0
 17 32  1  0
 17 33  1  0
M  END
>  <Energy>  (256) 
126.62668952337131

>  <compound_id>  (256) 
1590

>  <target_id>  (256) 
1

>  <reference_id>  (256) 
71

>  <inspiration_ids>  (256) 
[12, 71]

>  <energy_score>  (256) 
69.57684939335104

>  <distance_score>  (256) 
1.3088452439736633

>  <path>  (256) 
/opt/xchem-fragalysis-2/maxwin/BulkDock/SCRATCH/505732/C1590-P71/C1590-P71.minimised.mol

>  <scratch_subdir>  (256) 
/opt/xchem-fragalysis-2/maxwin/BulkDock/SCRATCH/505732/C1590-P71

>  <fragmenstein_runtime>  (256) 
11.145971059799194

>  <fragmenstein_outcome>  (256) 
too moved

>  <fragmenstein_mode>  (256) 
expansion

>  <fragmenstein_error>  (256) 


$$$$
C1597-P12
     RDKit          3D

 40 41  0  0  0  0  0  0  0  0999 V2000
   14.0504    0.5604   12.2867 C   0  0  0  0  0  0  0  0  0  0  0  0
   15.3951    0.8628   12.9072 C   0  0  0  0  0  0  0  0  0  0  0  0
   16.1465    1.6430   12.4501 O   0  0  0  0  0  0  0  0  0  0  0  0
   15.5243   -0.0221   14.1292 N   0  0  0  0  0  0  0  0  0  0  0  0
   16.6771   -0.2408   15.0547 C   0  0  0  0  0  0  0  0  0  0  0  0
   16.3280   -0.7652   16.4452 C   0  0  0  0  0  0  0  0  0  0  0  0
   16.7962   -2.2023   16.6691 C   0  0  0  0  0  0  0  0  0  0  0  0
   16.8701   -2.4610   18.0681 O   0  0  0  0  0  0  0  0  0  0  0  0
   14.8678   -0.3179   16.5297 C   0  0  0  0  0  0  0  0  0  0  0  0
   13.7682   -1.3754   16.4488 C   0  0  0  0  0  0  0  0  0  0  0  0
   13.8590   -2.4373   17.3612 C   0  0  0  0  0  0  0  0  0  0  0  0
   13.0325   -3.5391   17.2758 C   0  0  0  0  0  0  0  0  0  0  0  0
   13.1605   -4.5165   18.1788 F   0  0  0  0  0  0  0  0  0  0  0  0
   12.0781   -3.6181   16.2876 C   0  0  0  0  0  0  0  0  0  0  0  0
   11.8595   -2.5239   15.4620 C   0  0  0  0  0  0  0  0  0  0  0  0
   12.6273   -1.3608   15.6161 C   0  0  0  0  0  0  0  0  0  0  0  0
   12.2596   -0.1736   15.0525 O   0  0  0  0  0  0  0  0  0  0  0  0
   10.9578   -0.0471   14.5091 C   0  0  0  0  0  0  0  0  0  0  0  0
    9.7300   -0.2858   15.4086 C   0  0  0  0  0  0  0  0  0  0  0  0
    9.6100    0.0865   16.5687 O   0  0  0  0  0  0  0  0  0  0  0  0
    8.7063   -0.9491   14.8344 O   0  0  0  0  0  0  0  0  0  0  0  0
   14.9974    0.6707   15.3658 C   0  0  0  0  0  0  0  0  0  0  0  0
   13.3208    1.3015   12.6222 H   0  0  0  0  0  0  0  0  0  0  0  0
   13.7052   -0.4426   12.5512 H   0  0  0  0  0  0  0  0  0  0  0  0
   14.1430    0.6077   11.1980 H   0  0  0  0  0  0  0  0  0  0  0  0
   17.3227    0.6550   15.0820 H   0  0  0  0  0  0  0  0  0  0  0  0
   17.3040   -0.9685   14.5209 H   0  0  0  0  0  0  0  0  0  0  0  0
   16.8934   -0.1505   17.1631 H   0  0  0  0  0  0  0  0  0  0  0  0
   17.8128   -2.3270   16.2791 H   0  0  0  0  0  0  0  0  0  0  0  0
   16.1650   -2.9453   16.1743 H   0  0  0  0  0  0  0  0  0  0  0  0
   17.2438   -3.3540   18.1740 H   0  0  0  0  0  0  0  0  0  0  0  0
   14.6892    0.2457   17.4549 H   0  0  0  0  0  0  0  0  0  0  0  0
   14.5754   -2.4187   18.1761 H   0  0  0  0  0  0  0  0  0  0  0  0
   11.4716   -4.5096   16.2187 H   0  0  0  0  0  0  0  0  0  0  0  0
   11.0595   -2.6078   14.7345 H   0  0  0  0  0  0  0  0  0  0  0  0
   10.8610    0.9912   14.1684 H   0  0  0  0  0  0  0  0  0  0  0  0
   10.9329   -0.6410   13.6010 H   0  0  0  0  0  0  0  0  0  0  0  0
    8.8781   -1.2666   13.9079 H   0  0  0  0  0  0  0  0  0  0  0  0
   15.5757    1.5825   15.6169 H   0  0  0  0  0  0  0  0  0  0  0  0
   14.0351    1.1152   15.1006 H   0  0  0  0  0  0  0  0  0  0  0  0
  1  2  1  0
  2  3  2  0
  2  4  1  0
  4  5  1  0
  5  6  1  0
  6  7  1  0
  7  8  1  0
  6  9  1  0
  9 10  1  0
 10 11  2  0
 11 12  1  0
 12 13  1  0
 12 14  2  0
 14 15  1  0
 15 16  2  0
 16 17  1  0
 17 18  1  0
 18 19  1  0
 19 20  2  0
 19 21  1  0
  9 22  1  0
 22  4  1  0
 16 10  1  0
  1 23  1  0
  1 24  1  0
  1 25  1  0
  5 26  1  0
  5 27  1  0
  6 28  1  0
  7 29  1  0
  7 30  1  0
  8 31  1  0
  9 32  1  0
 11 33  1  0
 14 34  1  0
 15 35  1  0
 18 36  1  0
 18 37  1  0
 21 38  1  0
 22 39  1  0
 22 40  1  0
M  END
>  <Energy>  (257) 
125.55531039415327

>  <compound_id>  (257) 
1597

>  <target_id>  (257) 
1

>  <reference_id>  (257) 
12

>  <inspiration_ids>  (257) 
[12, 80]

>  <energy_score>  (257) 
55.16426290772682

>  <distance_score>  (257) 
1.8456841939225423

>  <path>  (257) 
/opt/xchem-fragalysis-2/maxwin/BulkDock/SCRATCH/505732/C1597-P12/C1597-P12.minimised.mol

>  <scratch_subdir>  (257) 
/opt/xchem-fragalysis-2/maxwin/BulkDock/SCRATCH/505732/C1597-P12

>  <fragmenstein_runtime>  (257) 
7.8058953285217285

>  <fragmenstein_outcome>  (257) 
too moved

>  <fragmenstein_mode>  (257) 
expansion

>  <fragmenstein_error>  (257) 


$$$$
C1597-P80
     RDKit          3D

 40 41  0  0  0  0  0  0  0  0999 V2000
   15.2935   -2.0270   11.7561 C   0  0  0  0  0  0  0  0  0  0  0  0
   16.5626   -1.5251   12.4137 C   0  0  0  0  0  0  0  0  0  0  0  0
   17.4588   -1.0764   11.7980 O   0  0  0  0  0  0  0  0  0  0  0  0
   16.3943   -1.7078   13.9085 N   0  0  0  0  0  0  0  0  0  0  0  0
   17.3480   -1.4684   15.0292 C   0  0  0  0  0  0  0  0  0  0  0  0
   16.6914   -1.2891   16.3931 C   0  0  0  0  0  0  0  0  0  0  0  0
   16.9744   -2.4477   17.3311 C   0  0  0  0  0  0  0  0  0  0  0  0
   16.3499   -2.2150   18.5804 O   0  0  0  0  0  0  0  0  0  0  0  0
   15.3106   -0.7951   15.9847 C   0  0  0  0  0  0  0  0  0  0  0  0
   14.0093   -1.5984   15.9884 C   0  0  0  0  0  0  0  0  0  0  0  0
   13.9075   -2.8748   16.5403 C   0  0  0  0  0  0  0  0  0  0  0  0
   12.7528   -3.6309   16.3945 C   0  0  0  0  0  0  0  0  0  0  0  0
   12.7403   -4.8766   16.8768 F   0  0  0  0  0  0  0  0  0  0  0  0
   11.6536   -3.1428   15.7154 C   0  0  0  0  0  0  0  0  0  0  0  0
   11.6663   -1.8379   15.2596 C   0  0  0  0  0  0  0  0  0  0  0  0
   12.8304   -1.0750   15.3939 C   0  0  0  0  0  0  0  0  0  0  0  0
   12.8157    0.2364   15.0081 O   0  0  0  0  0  0  0  0  0  0  0  0
   12.4044    0.4592   13.6656 C   0  0  0  0  0  0  0  0  0  0  0  0
   11.1185    1.2601   13.5508 C   0  0  0  0  0  0  0  0  0  0  0  0
   10.3998    1.5968   14.4791 O   0  0  0  0  0  0  0  0  0  0  0  0
   10.8260    1.6003   12.2630 O   0  0  0  0  0  0  0  0  0  0  0  0
   15.7522   -0.4965   14.5388 C   0  0  0  0  0  0  0  0  0  0  0  0
   14.7844   -1.1840   11.2810 H   0  0  0  0  0  0  0  0  0  0  0  0
   14.6087   -2.4860   12.4734 H   0  0  0  0  0  0  0  0  0  0  0  0
   15.5549   -2.7717   11.0000 H   0  0  0  0  0  0  0  0  0  0  0  0
   18.0592   -0.6629   14.7741 H   0  0  0  0  0  0  0  0  0  0  0  0
   17.9881   -2.3618   15.0300 H   0  0  0  0  0  0  0  0  0  0  0  0
   17.1912   -0.4275   16.8652 H   0  0  0  0  0  0  0  0  0  0  0  0
   18.0543   -2.5079   17.5138 H   0  0  0  0  0  0  0  0  0  0  0  0
   16.6809   -3.4168   16.9198 H   0  0  0  0  0  0  0  0  0  0  0  0
   16.6143   -2.9336   19.1814 H   0  0  0  0  0  0  0  0  0  0  0  0
   15.0919    0.1423   16.5132 H   0  0  0  0  0  0  0  0  0  0  0  0
   14.7033   -3.3539   17.0818 H   0  0  0  0  0  0  0  0  0  0  0  0
   10.7939   -3.7764   15.5524 H   0  0  0  0  0  0  0  0  0  0  0  0
   10.7692   -1.4309   14.8020 H   0  0  0  0  0  0  0  0  0  0  0  0
   13.1899    1.0616   13.1952 H   0  0  0  0  0  0  0  0  0  0  0  0
   12.3058   -0.4693   13.0966 H   0  0  0  0  0  0  0  0  0  0  0  0
   11.5184    1.3195   11.6279 H   0  0  0  0  0  0  0  0  0  0  0  0
   14.9006   -0.2761   13.8936 H   0  0  0  0  0  0  0  0  0  0  0  0
   16.3593    0.4233   14.4296 H   0  0  0  0  0  0  0  0  0  0  0  0
  1  2  1  0
  2  3  2  0
  2  4  1  0
  4  5  1  0
  5  6  1  0
  6  7  1  0
  7  8  1  0
  6  9  1  0
  9 10  1  0
 10 11  2  0
 11 12  1  0
 12 13  1  0
 12 14  2  0
 14 15  1  0
 15 16  2  0
 16 17  1  0
 17 18  1  0
 18 19  1  0
 19 20  2  0
 19 21  1  0
  9 22  1  0
 22  4  1  0
 16 10  1  0
  1 23  1  0
  1 24  1  0
  1 25  1  0
  5 26  1  0
  5 27  1  0
  6 28  1  0
  7 29  1  0
  7 30  1  0
  8 31  1  0
  9 32  1  0
 11 33  1  0
 14 34  1  0
 15 35  1  0
 18 36  1  0
 18 37  1  0
 21 38  1  0
 22 39  1  0
 22 40  1  0
M  END
>  <Energy>  (258) 
121.40929598318908

>  <compound_id>  (258) 
1597

>  <target_id>  (258) 
1

>  <reference_id>  (258) 
80

>  <inspiration_ids>  (258) 
[12, 80]

>  <energy_score>  (258) 
51.01824849676049

>  <distance_score>  (258) 
0.942899881818255

>  <path>  (258) 
/opt/xchem-fragalysis-2/maxwin/BulkDock/SCRATCH/505732/C1597-P80/C1597-P80.minimised.mol

>  <scratch_subdir>  (258) 
/opt/xchem-fragalysis-2/maxwin/BulkDock/SCRATCH/505732/C1597-P80

>  <fragmenstein_runtime>  (258) 
7.169930934906006

>  <fragmenstein_outcome>  (258) 
too contorted

>  <fragmenstein_mode>  (258) 
expansion

>  <fragmenstein_error>  (258) 


$$$$
C1598-P12
     RDKit          3D

 52 54  0  0  0  0  0  0  0  0999 V2000
   15.0879   -2.0482   11.7816 C   0  0  0  0  0  0  0  0  0  0  0  0
   16.3934   -1.6062   12.4060 C   0  0  0  0  0  0  0  0  0  0  0  0
   17.2849   -1.1803   11.7666 O   0  0  0  0  0  0  0  0  0  0  0  0
   16.2569   -1.7790   13.9063 N   0  0  0  0  0  0  0  0  0  0  0  0
   17.2466   -1.5558   15.0072 C   0  0  0  0  0  0  0  0  0  0  0  0
   16.6572   -1.3009   16.3880 C   0  0  0  0  0  0  0  0  0  0  0  0
   16.9461   -2.3842   17.4118 C   0  0  0  0  0  0  0  0  0  0  0  0
   16.3095   -2.1013   18.6451 O   0  0  0  0  0  0  0  0  0  0  0  0
   15.2787   -0.8074   16.0127 C   0  0  0  0  0  0  0  0  0  0  0  0
   13.9882   -1.6195   16.0746 C   0  0  0  0  0  0  0  0  0  0  0  0
   13.9822   -2.9984   16.3006 C   0  0  0  0  0  0  0  0  0  0  0  0
   12.8127   -3.7509   16.2275 C   0  0  0  0  0  0  0  0  0  0  0  0
   11.6429   -3.1713   15.7812 C   0  0  0  0  0  0  0  0  0  0  0  0
   11.5900   -1.8065   15.5938 C   0  0  0  0  0  0  0  0  0  0  0  0
   12.7290   -1.0106   15.8131 C   0  0  0  0  0  0  0  0  0  0  0  0
   12.4960    0.4827   15.8078 C   0  0  0  0  0  0  0  0  0  0  0  0
   12.8061    1.1767   14.5553 N   0  0  0  0  0  0  0  0  0  0  0  0
   12.7481    2.6321   14.7995 C   0  0  0  0  0  0  0  0  0  0  0  0
   13.0412    3.4442   13.5429 C   0  0  0  0  0  0  0  0  0  0  0  0
   12.0812    3.0416   12.4375 C   0  0  0  0  0  0  0  0  0  0  0  0
   12.3558    3.7496   11.2367 O   0  0  0  0  0  0  0  0  0  0  0  0
   12.1775    1.5456   12.1914 C   0  0  0  0  0  0  0  0  0  0  0  0
   11.9052    0.7589   13.4721 C   0  0  0  0  0  0  0  0  0  0  0  0
   15.6567   -0.5490   14.5466 C   0  0  0  0  0  0  0  0  0  0  0  0
   15.2874   -2.8546   11.0731 H   0  0  0  0  0  0  0  0  0  0  0  0
   14.3696   -2.4024   12.5242 H   0  0  0  0  0  0  0  0  0  0  0  0
   14.6448   -1.1981   11.2555 H   0  0  0  0  0  0  0  0  0  0  0  0
   17.9840   -0.7916   14.7048 H   0  0  0  0  0  0  0  0  0  0  0  0
   17.8421   -2.4793   15.0198 H   0  0  0  0  0  0  0  0  0  0  0  0
   17.1899   -0.4196   16.7828 H   0  0  0  0  0  0  0  0  0  0  0  0
   18.0243   -2.3976   17.6123 H   0  0  0  0  0  0  0  0  0  0  0  0
   16.7099   -3.3979   17.0860 H   0  0  0  0  0  0  0  0  0  0  0  0
   15.3497   -2.2098   18.5272 H   0  0  0  0  0  0  0  0  0  0  0  0
   15.1006    0.1384   16.5362 H   0  0  0  0  0  0  0  0  0  0  0  0
   14.8862   -3.5621   16.4661 H   0  0  0  0  0  0  0  0  0  0  0  0
   12.8451   -4.8215   16.4105 H   0  0  0  0  0  0  0  0  0  0  0  0
   10.7781   -3.7876   15.5785 H   0  0  0  0  0  0  0  0  0  0  0  0
   10.6486   -1.3572   15.2859 H   0  0  0  0  0  0  0  0  0  0  0  0
   13.0841    0.9050   16.6329 H   0  0  0  0  0  0  0  0  0  0  0  0
   11.4526    0.6862   16.0868 H   0  0  0  0  0  0  0  0  0  0  0  0
   13.4908    2.9068   15.5588 H   0  0  0  0  0  0  0  0  0  0  0  0
   11.7622    2.9173   15.1913 H   0  0  0  0  0  0  0  0  0  0  0  0
   14.0795    3.2907   13.2212 H   0  0  0  0  0  0  0  0  0  0  0  0
   12.9458    4.5165   13.7508 H   0  0  0  0  0  0  0  0  0  0  0  0
   11.0555    3.2991   12.7278 H   0  0  0  0  0  0  0  0  0  0  0  0
   13.2868    3.5877   10.9978 H   0  0  0  0  0  0  0  0  0  0  0  0
   13.1668    1.2889   11.7899 H   0  0  0  0  0  0  0  0  0  0  0  0
   11.4601    1.2697   11.4159 H   0  0  0  0  0  0  0  0  0  0  0  0
   12.0534   -0.3015   13.2477 H   0  0  0  0  0  0  0  0  0  0  0  0
   10.8546    0.8949   13.7609 H   0  0  0  0  0  0  0  0  0  0  0  0
   14.7624   -0.3386   13.9504 H   0  0  0  0  0  0  0  0  0  0  0  0
   16.2707    0.3576   14.3847 H   0  0  0  0  0  0  0  0  0  0  0  0
  1  2  1  0
  2  3  2  0
  2  4  1  0
  4  5  1  0
  5  6  1  0
  6  7  1  0
  7  8  1  0
  6  9  1  0
  9 10  1  0
 10 11  2  0
 11 12  1  0
 12 13  2  0
 13 14  1  0
 14 15  2  0
 15 16  1  0
 16 17  1  0
 17 18  1  0
 18 19  1  0
 19 20  1  0
 20 21  1  0
 20 22  1  0
 22 23  1  0
  9 24  1  0
 24  4  1  0
 15 10  1  0
 23 17  1  0
  1 25  1  0
  1 26  1  0
  1 27  1  0
  5 28  1  0
  5 29  1  0
  6 30  1  0
  7 31  1  0
  7 32  1  0
  8 33  1  0
  9 34  1  0
 11 35  1  0
 12 36  1  0
 13 37  1  0
 14 38  1  0
 16 39  1  0
 16 40  1  0
 18 41  1  0
 18 42  1  0
 19 43  1  0
 19 44  1  0
 20 45  1  0
 21 46  1  0
 22 47  1  0
 22 48  1  0
 23 49  1  0
 23 50  1  0
 24 51  1  0
 24 52  1  0
M  END
>  <Energy>  (259) 
112.13031454681574

>  <compound_id>  (259) 
1598

>  <target_id>  (259) 
1

>  <reference_id>  (259) 
12

>  <inspiration_ids>  (259) 
[12, 81]

>  <energy_score>  (259) 
4.926282970676311

>  <distance_score>  (259) 
1.1044442162757264

>  <path>  (259) 
/opt/xchem-fragalysis-2/maxwin/BulkDock/SCRATCH/505732/C1598-P12/C1598-P12.minimised.mol

>  <scratch_subdir>  (259) 
/opt/xchem-fragalysis-2/maxwin/BulkDock/SCRATCH/505732/C1598-P12

>  <fragmenstein_runtime>  (259) 
6.800096273422241

>  <fragmenstein_outcome>  (259) 
too moved

>  <fragmenstein_mode>  (259) 
expansion

>  <fragmenstein_error>  (259) 


$$$$
C1598-P81
     RDKit          3D

 52 54  0  0  0  0  0  0  0  0999 V2000
   16.9058   -2.2396   12.1567 C   0  0  0  0  0  0  0  0  0  0  0  0
   17.5178   -1.1223   12.9729 C   0  0  0  0  0  0  0  0  0  0  0  0
   18.1833   -0.2775   12.4965 O   0  0  0  0  0  0  0  0  0  0  0  0
   17.0866   -1.3373   14.4098 N   0  0  0  0  0  0  0  0  0  0  0  0
   17.4569   -0.6064   15.6528 C   0  0  0  0  0  0  0  0  0  0  0  0
   16.5840   -1.0322   16.8201 C   0  0  0  0  0  0  0  0  0  0  0  0
   17.0465   -2.3808   17.3497 C   0  0  0  0  0  0  0  0  0  0  0  0
   16.3830   -2.6565   18.5729 O   0  0  0  0  0  0  0  0  0  0  0  0
   15.2466   -0.8191   16.1379 C   0  0  0  0  0  0  0  0  0  0  0  0
   13.9944   -1.6852   16.1596 C   0  0  0  0  0  0  0  0  0  0  0  0
   14.0253   -3.0469   16.4670 C   0  0  0  0  0  0  0  0  0  0  0  0
   12.9064   -3.8612   16.3047 C   0  0  0  0  0  0  0  0  0  0  0  0
   11.7418   -3.3516   15.7622 C   0  0  0  0  0  0  0  0  0  0  0  0
   11.6447   -2.0007   15.5037 C   0  0  0  0  0  0  0  0  0  0  0  0
   12.7361   -1.1492   15.7505 C   0  0  0  0  0  0  0  0  0  0  0  0
   12.4560    0.3313   15.6089 C   0  0  0  0  0  0  0  0  0  0  0  0
   13.0987    0.9608   14.4595 N   0  0  0  0  0  0  0  0  0  0  0  0
   13.0987    2.4245   14.5754 C   0  0  0  0  0  0  0  0  0  0  0  0
   11.7363    3.0702   14.2974 C   0  0  0  0  0  0  0  0  0  0  0  0
   10.9989    2.3537   13.1667 C   0  0  0  0  0  0  0  0  0  0  0  0
   10.2393    3.2569   12.3686 O   0  0  0  0  0  0  0  0  0  0  0  0
   11.9657    1.5674   12.3011 C   0  0  0  0  0  0  0  0  0  0  0  0
   12.6031    0.4751   13.1625 C   0  0  0  0  0  0  0  0  0  0  0  0
   15.7759   -0.6398   14.6991 C   0  0  0  0  0  0  0  0  0  0  0  0
   17.7011   -2.7754   11.6319 H   0  0  0  0  0  0  0  0  0  0  0  0
   16.3633   -2.9502   12.7843 H   0  0  0  0  0  0  0  0  0  0  0  0
   16.2076   -1.8104   11.4331 H   0  0  0  0  0  0  0  0  0  0  0  0
   17.5365    0.4860   15.5030 H   0  0  0  0  0  0  0  0  0  0  0  0
   18.5018   -0.8919   15.8397 H   0  0  0  0  0  0  0  0  0  0  0  0
   16.6882   -0.3091   17.6404 H   0  0  0  0  0  0  0  0  0  0  0  0
   18.1177   -2.3375   17.5798 H   0  0  0  0  0  0  0  0  0  0  0  0
   16.9109   -3.1984   16.6367 H   0  0  0  0  0  0  0  0  0  0  0  0
   16.7960   -3.4503   18.9552 H   0  0  0  0  0  0  0  0  0  0  0  0
   14.9163    0.1687   16.4869 H   0  0  0  0  0  0  0  0  0  0  0  0
   14.9188   -3.5429   16.8116 H   0  0  0  0  0  0  0  0  0  0  0  0
   12.9763   -4.9192   16.5374 H   0  0  0  0  0  0  0  0  0  0  0  0
   10.9108   -4.0074   15.5436 H   0  0  0  0  0  0  0  0  0  0  0  0
   10.7089   -1.6103   15.1095 H   0  0  0  0  0  0  0  0  0  0  0  0
   12.7987    0.8005   16.5407 H   0  0  0  0  0  0  0  0  0  0  0  0
   11.3729    0.5142   15.5922 H   0  0  0  0  0  0  0  0  0  0  0  0
   13.8358    2.8231   13.8655 H   0  0  0  0  0  0  0  0  0  0  0  0
   13.4666    2.7410   15.5596 H   0  0  0  0  0  0  0  0  0  0  0  0
   11.8787    4.1328   14.0675 H   0  0  0  0  0  0  0  0  0  0  0  0
   11.1135    3.0382   15.2002 H   0  0  0  0  0  0  0  0  0  0  0  0
   10.2799    1.6528   13.6040 H   0  0  0  0  0  0  0  0  0  0  0  0
   10.8427    3.9745   12.0932 H   0  0  0  0  0  0  0  0  0  0  0  0
   12.7269    2.2308   11.8708 H   0  0  0  0  0  0  0  0  0  0  0  0
   11.4474    1.1345   11.4437 H   0  0  0  0  0  0  0  0  0  0  0  0
   11.8723   -0.3321   13.2788 H   0  0  0  0  0  0  0  0  0  0  0  0
   13.4451    0.0461   12.6077 H   0  0  0  0  0  0  0  0  0  0  0  0
   15.0737   -1.0828   13.9794 H   0  0  0  0  0  0  0  0  0  0  0  0
   15.8240    0.4186   14.3842 H   0  0  0  0  0  0  0  0  0  0  0  0
  1  2  1  0
  2  3  2  0
  2  4  1  0
  4  5  1  0
  5  6  1  0
  6  7  1  0
  7  8  1  0
  6  9  1  0
  9 10  1  0
 10 11  2  0
 11 12  1  0
 12 13  2  0
 13 14  1  0
 14 15  2  0
 15 16  1  0
 16 17  1  0
 17 18  1  0
 18 19  1  0
 19 20  1  0
 20 21  1  0
 20 22  1  0
 22 23  1  0
  9 24  1  0
 24  4  1  0
 15 10  1  0
 23 17  1  0
  1 25  1  0
  1 26  1  0
  1 27  1  0
  5 28  1  0
  5 29  1  0
  6 30  1  0
  7 31  1  0
  7 32  1  0
  8 33  1  0
  9 34  1  0
 11 35  1  0
 12 36  1  0
 13 37  1  0
 14 38  1  0
 16 39  1  0
 16 40  1  0
 18 41  1  0
 18 42  1  0
 19 43  1  0
 19 44  1  0
 20 45  1  0
 21 46  1  0
 22 47  1  0
 22 48  1  0
 23 49  1  0
 23 50  1  0
 24 51  1  0
 24 52  1  0
M  END
>  <Energy>  (260) 
122.75860232884673

>  <compound_id>  (260) 
1598

>  <target_id>  (260) 
1

>  <reference_id>  (260) 
81

>  <inspiration_ids>  (260) 
[12, 81]

>  <energy_score>  (260) 
15.554570752707008

>  <distance_score>  (260) 
1.5461035363698923

>  <path>  (260) 
/opt/xchem-fragalysis-2/maxwin/BulkDock/SCRATCH/505732/C1598-P81/C1598-P81.minimised.mol

>  <scratch_subdir>  (260) 
/opt/xchem-fragalysis-2/maxwin/BulkDock/SCRATCH/505732/C1598-P81

>  <fragmenstein_runtime>  (260) 
7.616426706314087

>  <fragmenstein_outcome>  (260) 
too moved

>  <fragmenstein_mode>  (260) 
expansion

>  <fragmenstein_error>  (260) 


$$$$
C1586-P12
     RDKit          3D

 35 36  0  0  0  0  0  0  0  0999 V2000
   12.0220    0.7982   14.7581 C   0  0  0  0  0  0  0  0  0  0  0  0
   12.3138   -0.5074   15.4655 C   0  0  0  0  0  0  0  0  0  0  0  0
   11.4687   -1.2673   15.7671 O   0  0  0  0  0  0  0  0  0  0  0  0
   13.8164   -0.5846   15.6564 N   0  0  0  0  0  0  0  0  0  0  0  0
   14.6553   -1.5936   16.3691 C   0  0  0  0  0  0  0  0  0  0  0  0
   16.1383   -1.4544   16.0501 C   0  0  0  0  0  0  0  0  0  0  0  0
   16.9185   -2.6152   16.6388 C   0  0  0  0  0  0  0  0  0  0  0  0
   16.7639   -2.6345   18.0575 O   0  0  0  0  0  0  0  0  0  0  0  0
   16.0206   -1.1817   14.5624 C   0  0  0  0  0  0  0  0  0  0  0  0
   16.7199   -1.8847   13.4040 C   0  0  0  0  0  0  0  0  0  0  0  0
   17.7465   -2.8240   13.5300 C   0  0  0  0  0  0  0  0  0  0  0  0
   18.3974   -3.3525   12.4018 C   0  0  0  0  0  0  0  0  0  0  0  0
   18.0390   -2.9530   11.1156 C   0  0  0  0  0  0  0  0  0  0  0  0
   17.0239   -2.0214   10.9444 C   0  0  0  0  0  0  0  0  0  0  0  0
   16.8312   -1.4323    9.6735 N   0  0  0  0  0  0  0  0  0  0  0  0
   16.3962   -1.4824   12.0801 C   0  0  0  0  0  0  0  0  0  0  0  0
   14.4854   -1.2447   14.4746 C   0  0  0  0  0  0  0  0  0  0  0  0
   11.7342    0.5863   13.7248 H   0  0  0  0  0  0  0  0  0  0  0  0
   12.8876    1.4666   14.7580 H   0  0  0  0  0  0  0  0  0  0  0  0
   11.2009    1.3046   15.2732 H   0  0  0  0  0  0  0  0  0  0  0  0
   14.4986   -1.3609   17.4324 H   0  0  0  0  0  0  0  0  0  0  0  0
   14.2433   -2.6146   16.2752 H   0  0  0  0  0  0  0  0  0  0  0  0
   16.4939   -0.5353   16.5393 H   0  0  0  0  0  0  0  0  0  0  0  0
   17.9888   -2.5128   16.4437 H   0  0  0  0  0  0  0  0  0  0  0  0
   16.5701   -3.5779   16.2523 H   0  0  0  0  0  0  0  0  0  0  0  0
   17.2300   -1.8607   18.4205 H   0  0  0  0  0  0  0  0  0  0  0  0
   16.3115   -0.1257   14.4395 H   0  0  0  0  0  0  0  0  0  0  0  0
   18.0932   -3.1844   14.4873 H   0  0  0  0  0  0  0  0  0  0  0  0
   19.1974   -4.0774   12.5349 H   0  0  0  0  0  0  0  0  0  0  0  0
   18.5685   -3.3532   10.2552 H   0  0  0  0  0  0  0  0  0  0  0  0
   15.9180   -0.9833    9.6223 H   0  0  0  0  0  0  0  0  0  0  0  0
   17.5559   -0.7301    9.5218 H   0  0  0  0  0  0  0  0  0  0  0  0
   15.6610   -0.6942   11.9306 H   0  0  0  0  0  0  0  0  0  0  0  0
   14.1580   -0.6529   13.6078 H   0  0  0  0  0  0  0  0  0  0  0  0
   14.0681   -2.2416   14.2625 H   0  0  0  0  0  0  0  0  0  0  0  0
  1  2  1  0
  2  3  2  0
  2  4  1  0
  4  5  1  0
  5  6  1  0
  6  7  1  0
  7  8  1  0
  6  9  1  0
  9 10  1  0
 10 11  2  0
 11 12  1  0
 12 13  2  0
 13 14  1  0
 14 15  1  0
 14 16  2  0
  9 17  1  0
 17  4  1  0
 16 10  1  0
  1 18  1  0
  1 19  1  0
  1 20  1  0
  5 21  1  0
  5 22  1  0
  6 23  1  0
  7 24  1  0
  7 25  1  0
  8 26  1  0
  9 27  1  0
 11 28  1  0
 12 29  1  0
 13 30  1  0
 15 31  1  0
 15 32  1  0
 16 33  1  0
 17 34  1  0
 17 35  1  0
M  END
>  <Energy>  (261) 
96.69088923851632

>  <compound_id>  (261) 
1586

>  <target_id>  (261) 
1

>  <reference_id>  (261) 
12

>  <inspiration_ids>  (261) 
[12, 83]

>  <energy_score>  (261) 
57.616433101984526

>  <distance_score>  (261) 
2.901019208463254

>  <path>  (261) 
/opt/xchem-fragalysis-2/maxwin/BulkDock/SCRATCH/505732/C1586-P12/C1586-P12.minimised.mol

>  <scratch_subdir>  (261) 
/opt/xchem-fragalysis-2/maxwin/BulkDock/SCRATCH/505732/C1586-P12

>  <fragmenstein_runtime>  (261) 
11.932287693023682

>  <fragmenstein_outcome>  (261) 
too moved

>  <fragmenstein_mode>  (261) 
expansion

>  <fragmenstein_error>  (261) 


$$$$
C1586-P83
     RDKit          3D

 35 36  0  0  0  0  0  0  0  0999 V2000
   12.4751   -1.3011   14.3410 C   0  0  0  0  0  0  0  0  0  0  0  0
   13.6143   -1.9818   15.0699 C   0  0  0  0  0  0  0  0  0  0  0  0
   13.8293   -3.1342   14.9750 O   0  0  0  0  0  0  0  0  0  0  0  0
   14.3146   -0.9166   15.8949 N   0  0  0  0  0  0  0  0  0  0  0  0
   15.4205   -1.0324   16.9091 C   0  0  0  0  0  0  0  0  0  0  0  0
   16.7088   -1.6785   16.4060 C   0  0  0  0  0  0  0  0  0  0  0  0
   16.7167   -3.1660   16.7104 C   0  0  0  0  0  0  0  0  0  0  0  0
   16.7992   -3.2967   18.1353 O   0  0  0  0  0  0  0  0  0  0  0  0
   16.7108   -1.1343   15.0024 C   0  0  0  0  0  0  0  0  0  0  0  0
   16.9160   -2.0341   13.7980 C   0  0  0  0  0  0  0  0  0  0  0  0
   18.0395   -2.8728   13.7268 C   0  0  0  0  0  0  0  0  0  0  0  0
   18.2819   -3.6677   12.5999 C   0  0  0  0  0  0  0  0  0  0  0  0
   17.4449   -3.5879   11.4897 C   0  0  0  0  0  0  0  0  0  0  0  0
   16.3968   -2.6767   11.4890 C   0  0  0  0  0  0  0  0  0  0  0  0
   15.5037   -2.6068   10.4227 N   0  0  0  0  0  0  0  0  0  0  0  0
   16.1064   -1.9623   12.6538 C   0  0  0  0  0  0  0  0  0  0  0  0
   15.4411   -0.2784   15.1214 C   0  0  0  0  0  0  0  0  0  0  0  0
   11.5406   -1.8097   14.5941 H   0  0  0  0  0  0  0  0  0  0  0  0
   12.6508   -1.3674   13.2641 H   0  0  0  0  0  0  0  0  0  0  0  0
   12.3781   -0.2477   14.6179 H   0  0  0  0  0  0  0  0  0  0  0  0
   15.6050   -0.0668   17.4078 H   0  0  0  0  0  0  0  0  0  0  0  0
   14.9821   -1.6516   17.7027 H   0  0  0  0  0  0  0  0  0  0  0  0
   17.5392   -1.2323   16.9722 H   0  0  0  0  0  0  0  0  0  0  0  0
   17.5928   -3.6704   16.3009 H   0  0  0  0  0  0  0  0  0  0  0  0
   15.8167   -3.6768   16.3627 H   0  0  0  0  0  0  0  0  0  0  0  0
   16.5407   -4.2157   18.3373 H   0  0  0  0  0  0  0  0  0  0  0  0
   17.5374   -0.4119   14.9134 H   0  0  0  0  0  0  0  0  0  0  0  0
   18.7472   -2.9219   14.5512 H   0  0  0  0  0  0  0  0  0  0  0  0
   19.1273   -4.3500   12.5891 H   0  0  0  0  0  0  0  0  0  0  0  0
   17.6244   -4.2327   10.6340 H   0  0  0  0  0  0  0  0  0  0  0  0
   15.0010   -1.7298   10.3628 H   0  0  0  0  0  0  0  0  0  0  0  0
   15.9168   -2.8756    9.5395 H   0  0  0  0  0  0  0  0  0  0  0  0
   15.2240   -1.3344   12.6335 H   0  0  0  0  0  0  0  0  0  0  0  0
   15.0348   -0.0224   14.1377 H   0  0  0  0  0  0  0  0  0  0  0  0
   15.6612    0.7237   15.5359 H   0  0  0  0  0  0  0  0  0  0  0  0
  1  2  1  0
  2  3  2  0
  2  4  1  0
  4  5  1  0
  5  6  1  0
  6  7  1  0
  7  8  1  0
  6  9  1  0
  9 10  1  0
 10 11  2  0
 11 12  1  0
 12 13  2  0
 13 14  1  0
 14 15  1  0
 14 16  2  0
  9 17  1  0
 17  4  1  0
 16 10  1  0
  1 18  1  0
  1 19  1  0
  1 20  1  0
  5 21  1  0
  5 22  1  0
  6 23  1  0
  7 24  1  0
  7 25  1  0
  8 26  1  0
  9 27  1  0
 11 28  1  0
 12 29  1  0
 13 30  1  0
 15 31  1  0
 15 32  1  0
 16 33  1  0
 17 34  1  0
 17 35  1  0
M  END
>  <Energy>  (262) 
94.234093420064966

>  <compound_id>  (262) 
1586

>  <target_id>  (262) 
1

>  <reference_id>  (262) 
83

>  <inspiration_ids>  (262) 
[12, 83]

>  <energy_score>  (262) 
55.15963728353319

>  <distance_score>  (262) 
2.5118280429761763

>  <path>  (262) 
/opt/xchem-fragalysis-2/maxwin/BulkDock/SCRATCH/505732/C1586-P83/C1586-P83.minimised.mol

>  <scratch_subdir>  (262) 
/opt/xchem-fragalysis-2/maxwin/BulkDock/SCRATCH/505732/C1586-P83

>  <fragmenstein_runtime>  (262) 
11.323776245117188

>  <fragmenstein_outcome>  (262) 
too moved

>  <fragmenstein_mode>  (262) 
expansion

>  <fragmenstein_error>  (262) 


$$$$
C1599-P12
     RDKit          3D

 39 40  0  0  0  0  0  0  0  0999 V2000
   20.3126   -0.6130   15.1546 C   0  0  0  0  0  0  0  0  0  0  0  0
   19.1401   -1.3060   15.8155 C   0  0  0  0  0  0  0  0  0  0  0  0
   19.1431   -1.6192   16.9487 O   0  0  0  0  0  0  0  0  0  0  0  0
   18.0747   -1.4857   14.7504 N   0  0  0  0  0  0  0  0  0  0  0  0
   17.1454   -0.3128   14.7098 C   0  0  0  0  0  0  0  0  0  0  0  0
   16.0294   -0.3122   15.7506 C   0  0  0  0  0  0  0  0  0  0  0  0
   16.1569    0.6632   16.9000 C   0  0  0  0  0  0  0  0  0  0  0  0
   16.3274    1.9738   16.3979 O   0  0  0  0  0  0  0  0  0  0  0  0
   14.9451    0.6900   17.6247 O   0  0  0  0  0  0  0  0  0  0  0  0
   15.8318   -1.7983   15.9885 C   0  0  0  0  0  0  0  0  0  0  0  0
   16.4189   -2.5532   17.2279 C   0  0  0  0  0  0  0  0  0  0  0  0
   16.4149   -1.9277   18.5955 C   0  0  0  0  0  0  0  0  0  0  0  0
   16.7576   -3.7434   17.1415 O   0  0  0  0  0  0  0  0  0  0  0  0
   14.3504   -2.1999   15.7696 C   0  0  0  0  0  0  0  0  0  0  0  0
   13.5984   -1.6851   14.6909 C   0  0  0  0  0  0  0  0  0  0  0  0
   12.2614   -2.0314   14.4956 C   0  0  0  0  0  0  0  0  0  0  0  0
   11.6519   -2.9451   15.3397 C   0  0  0  0  0  0  0  0  0  0  0  0
   12.3729   -3.4937   16.3916 C   0  0  0  0  0  0  0  0  0  0  0  0
   13.6949   -3.1087   16.6198 C   0  0  0  0  0  0  0  0  0  0  0  0
   16.7327   -2.2151   14.7985 C   0  0  0  0  0  0  0  0  0  0  0  0
   20.3873    0.4067   15.5417 H   0  0  0  0  0  0  0  0  0  0  0  0
   20.2068   -0.5735   14.0668 H   0  0  0  0  0  0  0  0  0  0  0  0
   21.2276   -1.1643   15.3883 H   0  0  0  0  0  0  0  0  0  0  0  0
   16.7604   -0.1924   13.6814 H   0  0  0  0  0  0  0  0  0  0  0  0
   17.7716    0.5793   14.8481 H   0  0  0  0  0  0  0  0  0  0  0  0
   15.1880    0.1169   15.1925 H   0  0  0  0  0  0  0  0  0  0  0  0
   17.0025    0.4478   17.5523 H   0  0  0  0  0  0  0  0  0  0  0  0
   16.5358    2.5173   17.1792 H   0  0  0  0  0  0  0  0  0  0  0  0
   14.2393    0.8840   16.9837 H   0  0  0  0  0  0  0  0  0  0  0  0
   16.5408   -2.7169   19.3448 H   0  0  0  0  0  0  0  0  0  0  0  0
   17.2447   -1.2336   18.7152 H   0  0  0  0  0  0  0  0  0  0  0  0
   15.4543   -1.4520   18.7955 H   0  0  0  0  0  0  0  0  0  0  0  0
   14.0391   -1.0257   13.9467 H   0  0  0  0  0  0  0  0  0  0  0  0
   11.7080   -1.6235   13.6537 H   0  0  0  0  0  0  0  0  0  0  0  0
   10.6337   -3.2640   15.1391 H   0  0  0  0  0  0  0  0  0  0  0  0
   11.9221   -4.2555   17.0218 H   0  0  0  0  0  0  0  0  0  0  0  0
   14.1960   -3.5851   17.4588 H   0  0  0  0  0  0  0  0  0  0  0  0
   16.2425   -2.1832   13.8084 H   0  0  0  0  0  0  0  0  0  0  0  0
   17.0174   -3.2727   14.8826 H   0  0  0  0  0  0  0  0  0  0  0  0
  1  2  1  0
  2  3  2  0
  2  4  1  0
  4  5  1  0
  5  6  1  0
  6  7  1  0
  7  8  1  0
  7  9  1  0
  6 10  1  0
 10 11  1  0
 11 12  1  0
 11 13  2  0
 10 14  1  0
 14 15  2  0
 15 16  1  0
 16 17  2  0
 17 18  1  0
 18 19  2  0
 10 20  1  0
 20  4  1  0
 19 14  1  0
  1 21  1  0
  1 22  1  0
  1 23  1  0
  5 24  1  0
  5 25  1  0
  6 26  1  0
  7 27  1  0
  8 28  1  0
  9 29  1  0
 12 30  1  0
 12 31  1  0
 12 32  1  0
 15 33  1  0
 16 34  1  0
 17 35  1  0
 18 36  1  0
 19 37  1  0
 20 38  1  0
 20 39  1  0
M  END
>  <Energy>  (263) 
77.702870840201825

>  <compound_id>  (263) 
1599

>  <target_id>  (263) 
1

>  <reference_id>  (263) 
12

>  <inspiration_ids>  (263) 
[12, 93]

>  <energy_score>  (263) 
55.59152756654646

>  <distance_score>  (263) 
2.491453995858931

>  <path>  (263) 
/opt/xchem-fragalysis-2/maxwin/BulkDock/SCRATCH/505732/C1599-P12/C1599-P12.minimised.mol

>  <scratch_subdir>  (263) 
/opt/xchem-fragalysis-2/maxwin/BulkDock/SCRATCH/505732/C1599-P12

>  <fragmenstein_runtime>  (263) 
32.96477818489075

>  <fragmenstein_outcome>  (263) 
too moved

>  <fragmenstein_mode>  (263) 
expansion

>  <fragmenstein_error>  (263) 


$$$$
C1599-P93
     RDKit          3D

 39 40  0  0  0  0  0  0  0  0999 V2000
   17.8851   -1.7811   11.4533 C   0  0  0  0  0  0  0  0  0  0  0  0
   18.1650   -2.5903   12.7012 C   0  0  0  0  0  0  0  0  0  0  0  0
   19.0570   -3.3528   12.7783 O   0  0  0  0  0  0  0  0  0  0  0  0
   17.0968   -2.2262   13.7117 N   0  0  0  0  0  0  0  0  0  0  0  0
   17.5374   -1.0703   14.5834 C   0  0  0  0  0  0  0  0  0  0  0  0
   16.3350   -0.5871   15.3644 C   0  0  0  0  0  0  0  0  0  0  0  0
   16.5403    0.6108   16.2724 C   0  0  0  0  0  0  0  0  0  0  0  0
   16.9107    1.7381   15.5107 O   0  0  0  0  0  0  0  0  0  0  0  0
   15.3084    0.9373   16.8893 O   0  0  0  0  0  0  0  0  0  0  0  0
   15.9465   -1.9001   16.0147 C   0  0  0  0  0  0  0  0  0  0  0  0
   16.5725   -2.0182   17.4285 C   0  0  0  0  0  0  0  0  0  0  0  0
   15.7176   -1.8714   18.6573 C   0  0  0  0  0  0  0  0  0  0  0  0
   17.7917   -2.1578   17.5791 O   0  0  0  0  0  0  0  0  0  0  0  0
   14.4566   -2.2666   15.9499 C   0  0  0  0  0  0  0  0  0  0  0  0
   13.4914   -1.4827   15.2868 C   0  0  0  0  0  0  0  0  0  0  0  0
   12.1802   -1.9268   15.1146 C   0  0  0  0  0  0  0  0  0  0  0  0
   11.7962   -3.1507   15.6345 C   0  0  0  0  0  0  0  0  0  0  0  0
   12.7016   -3.9103   16.3648 C   0  0  0  0  0  0  0  0  0  0  0  0
   14.0220   -3.4845   16.5028 C   0  0  0  0  0  0  0  0  0  0  0  0
   16.7957   -2.8016   15.0737 C   0  0  0  0  0  0  0  0  0  0  0  0
   17.8741   -2.4534   10.5906 H   0  0  0  0  0  0  0  0  0  0  0  0
   18.6732   -1.0338   11.3293 H   0  0  0  0  0  0  0  0  0  0  0  0
   16.9177   -1.2732   11.5006 H   0  0  0  0  0  0  0  0  0  0  0  0
   17.8426   -0.2772   13.8854 H   0  0  0  0  0  0  0  0  0  0  0  0
   18.4587   -1.2742   15.1562 H   0  0  0  0  0  0  0  0  0  0  0  0
   15.6297   -0.2765   14.5865 H   0  0  0  0  0  0  0  0  0  0  0  0
   17.3032    0.4404   17.0373 H   0  0  0  0  0  0  0  0  0  0  0  0
   17.2803    2.3749   16.1481 H   0  0  0  0  0  0  0  0  0  0  0  0
   14.7391    1.2536   16.1666 H   0  0  0  0  0  0  0  0  0  0  0  0
   16.3261   -1.4660   19.4718 H   0  0  0  0  0  0  0  0  0  0  0  0
   14.8970   -1.1723   18.4842 H   0  0  0  0  0  0  0  0  0  0  0  0
   15.3275   -2.8444   18.9624 H   0  0  0  0  0  0  0  0  0  0  0  0
   13.7233   -0.5277   14.8296 H   0  0  0  0  0  0  0  0  0  0  0  0
   11.4727   -1.3398   14.5314 H   0  0  0  0  0  0  0  0  0  0  0  0
   10.8048   -3.5357   15.4236 H   0  0  0  0  0  0  0  0  0  0  0  0
   12.4003   -4.8784   16.7545 H   0  0  0  0  0  0  0  0  0  0  0  0
   14.7206   -4.1534   17.0011 H   0  0  0  0  0  0  0  0  0  0  0  0
   16.2423   -3.7212   14.8394 H   0  0  0  0  0  0  0  0  0  0  0  0
   17.7281   -3.2085   15.5009 H   0  0  0  0  0  0  0  0  0  0  0  0
  1  2  1  0
  2  3  2  0
  2  4  1  0
  4  5  1  0
  5  6  1  0
  6  7  1  0
  7  8  1  0
  7  9  1  0
  6 10  1  0
 10 11  1  0
 11 12  1  0
 11 13  2  0
 10 14  1  0
 14 15  2  0
 15 16  1  0
 16 17  2  0
 17 18  1  0
 18 19  2  0
 10 20  1  0
 20  4  1  0
 19 14  1  0
  1 21  1  0
  1 22  1  0
  1 23  1  0
  5 24  1  0
  5 25  1  0
  6 26  1  0
  7 27  1  0
  8 28  1  0
  9 29  1  0
 12 30  1  0
 12 31  1  0
 12 32  1  0
 15 33  1  0
 16 34  1  0
 17 35  1  0
 18 36  1  0
 19 37  1  0
 20 38  1  0
 20 39  1  0
M  END
>  <Energy>  (264) 
64.927396712436874

>  <compound_id>  (264) 
1599

>  <target_id>  (264) 
1

>  <reference_id>  (264) 
93

>  <inspiration_ids>  (264) 
[12, 93]

>  <energy_score>  (264) 
42.816053438782106

>  <distance_score>  (264) 
1.5518101256474075

>  <path>  (264) 
/opt/xchem-fragalysis-2/maxwin/BulkDock/SCRATCH/505732/C1599-P93/C1599-P93.minimised.mol

>  <scratch_subdir>  (264) 
/opt/xchem-fragalysis-2/maxwin/BulkDock/SCRATCH/505732/C1599-P93

>  <fragmenstein_runtime>  (264) 
31.2121479511261

>  <fragmenstein_outcome>  (264) 
too moved

>  <fragmenstein_mode>  (264) 
expansion

>  <fragmenstein_error>  (264) 


$$$$
C1601-P12
     RDKit          3D

 62 66  0  0  0  0  0  0  0  0999 V2000
   19.3281   -6.5240   15.1601 C   0  0  0  0  0  0  0  0  0  0  0  0
   19.9865   -5.3768   15.8980 C   0  0  0  0  0  0  0  0  0  0  0  0
   21.1511   -5.2921   16.0359 O   0  0  0  0  0  0  0  0  0  0  0  0
   18.8742   -4.4579   16.3638 N   0  0  0  0  0  0  0  0  0  0  0  0
   18.9179   -3.2390   17.2135 C   0  0  0  0  0  0  0  0  0  0  0  0
   17.5612   -2.5555   17.2130 C   0  0  0  0  0  0  0  0  0  0  0  0
   16.5522   -3.4380   17.9210 C   0  0  0  0  0  0  0  0  0  0  0  0
   15.6961   -2.5650   18.6550 O   0  0  0  0  0  0  0  0  0  0  0  0
   17.4603   -2.3917   15.7261 C   0  0  0  0  0  0  0  0  0  0  0  0
   16.1763   -2.5196   14.8455 C   0  0  0  0  0  0  0  0  0  0  0  0
   16.6718   -2.1909   13.3832 C   0  0  0  0  0  0  0  0  0  0  0  0
   15.6822   -1.5061   12.4585 C   0  0  0  0  0  0  0  0  0  0  0  0
   14.2918   -2.0147   12.6505 C   0  0  0  0  0  0  0  0  0  0  0  0
   13.8204   -1.8409   14.0744 C   0  0  0  0  0  0  0  0  0  0  0  0
   14.9102   -1.6580   15.1767 C   0  0  0  0  0  0  0  0  0  0  0  0
   14.2230   -1.8667   16.4456 N   0  0  0  0  0  0  0  0  0  0  0  0
   13.6405   -0.5698   16.7756 C   0  0  0  0  0  0  0  0  0  0  0  0
   11.9477   -0.3657   16.0924 S   0  0  0  0  0  0  0  0  0  0  0  0
   11.8836    1.3174   15.6181 C   0  0  0  0  0  0  0  0  0  0  0  0
   12.1745    2.3401   16.4510 C   0  0  0  0  0  0  0  0  0  0  0  0
   12.0480    3.7172   15.9931 C   0  0  0  0  0  0  0  0  0  0  0  0
   11.6307    4.0091   14.7482 C   0  0  0  0  0  0  0  0  0  0  0  0
   11.3094    2.9507   13.8600 C   0  0  0  0  0  0  0  0  0  0  0  0
   10.8600    2.9356   12.6226 N   0  0  0  0  0  0  0  0  0  0  0  0
   10.7314    1.6212   12.2427 N   0  0  0  0  0  0  0  0  0  0  0  0
   11.0843    0.8737   13.2629 C   0  0  0  0  0  0  0  0  0  0  0  0
   11.4572    1.6488   14.3240 N   0  0  0  0  0  0  0  0  0  0  0  0
   14.5905    0.3991   16.2622 N   0  0  0  0  0  0  0  0  0  0  0  0
   15.4971    0.8953   17.2980 C   0  0  0  0  0  0  0  0  0  0  0  0
   15.3179   -0.2541   15.2121 N   0  0  0  0  0  0  0  0  0  0  0  0
   18.5605   -3.4091   15.3255 C   0  0  0  0  0  0  0  0  0  0  0  0
   18.2490   -6.5587   15.3359 H   0  0  0  0  0  0  0  0  0  0  0  0
   19.5118   -6.4105   14.0884 H   0  0  0  0  0  0  0  0  0  0  0  0
   19.7596   -7.4656   15.5107 H   0  0  0  0  0  0  0  0  0  0  0  0
   19.1517   -3.6073   18.2226 H   0  0  0  0  0  0  0  0  0  0  0  0
   19.7819   -2.5841   16.9961 H   0  0  0  0  0  0  0  0  0  0  0  0
   17.6410   -1.5837   17.7128 H   0  0  0  0  0  0  0  0  0  0  0  0
   17.0187   -4.1065   18.6517 H   0  0  0  0  0  0  0  0  0  0  0  0
   15.9506   -4.0389   17.2352 H   0  0  0  0  0  0  0  0  0  0  0  0
   15.1448   -3.1306   19.2298 H   0  0  0  0  0  0  0  0  0  0  0  0
   17.8901   -1.4020   15.5097 H   0  0  0  0  0  0  0  0  0  0  0  0
   15.8675   -3.5715   14.8687 H   0  0  0  0  0  0  0  0  0  0  0  0
   17.5644   -1.5516   13.4034 H   0  0  0  0  0  0  0  0  0  0  0  0
   17.0074   -3.1154   12.9078 H   0  0  0  0  0  0  0  0  0  0  0  0
   15.9953   -1.6615   11.4184 H   0  0  0  0  0  0  0  0  0  0  0  0
   15.7114   -0.4202   12.6094 H   0  0  0  0  0  0  0  0  0  0  0  0
   13.6349   -1.4567   11.9810 H   0  0  0  0  0  0  0  0  0  0  0  0
   14.2362   -3.0467   12.3098 H   0  0  0  0  0  0  0  0  0  0  0  0
   13.0944   -2.6203   14.3304 H   0  0  0  0  0  0  0  0  0  0  0  0
   13.2326   -0.9258   14.0001 H   0  0  0  0  0  0  0  0  0  0  0  0
   14.9322   -1.9922   17.1645 H   0  0  0  0  0  0  0  0  0  0  0  0
   13.5282   -0.4825   17.8597 H   0  0  0  0  0  0  0  0  0  0  0  0
   12.5097    2.2032   17.4726 H   0  0  0  0  0  0  0  0  0  0  0  0
   12.2972    4.5057   16.6981 H   0  0  0  0  0  0  0  0  0  0  0  0
   11.5330    5.0321   14.4029 H   0  0  0  0  0  0  0  0  0  0  0  0
   11.0864   -0.2048   13.2921 H   0  0  0  0  0  0  0  0  0  0  0  0
   14.9348    1.4238   18.0758 H   0  0  0  0  0  0  0  0  0  0  0  0
   16.2011    1.6208   16.8742 H   0  0  0  0  0  0  0  0  0  0  0  0
   16.0737    0.0992   17.7775 H   0  0  0  0  0  0  0  0  0  0  0  0
   16.3241   -0.1335   15.2813 H   0  0  0  0  0  0  0  0  0  0  0  0
   18.2405   -3.9953   14.4554 H   0  0  0  0  0  0  0  0  0  0  0  0
   19.4834   -2.9168   14.9680 H   0  0  0  0  0  0  0  0  0  0  0  0
  1  2  1  0
  2  3  2  0
  2  4  1  0
  4  5  1  0
  5  6  1  0
  6  7  1  0
  7  8  1  0
  6  9  1  0
  9 10  1  0
 10 11  1  0
 11 12  1  0
 12 13  1  0
 13 14  1  0
 14 15  1  0
 15 16  1  0
 16 17  1  0
 17 18  1  0
 18 19  1  0
 19 20  2  0
 20 21  1  0
 21 22  2  0
 22 23  1  0
 23 24  2  0
 24 25  1  0
 25 26  2  0
 26 27  1  0
 17 28  1  0
 28 29  1  0
 28 30  1  0
  9 31  1  0
 31  4  1  0
 15 10  1  0
 27 19  1  0
 30 15  1  0
 27 23  1  0
  1 32  1  0
  1 33  1  0
  1 34  1  0
  5 35  1  0
  5 36  1  0
  6 37  1  0
  7 38  1  0
  7 39  1  0
  8 40  1  0
  9 41  1  0
 10 42  1  0
 11 43  1  0
 11 44  1  0
 12 45  1  0
 12 46  1  0
 13 47  1  0
 13 48  1  0
 14 49  1  0
 14 50  1  0
 16 51  1  0
 17 52  1  0
 20 53  1  0
 21 54  1  0
 22 55  1  0
 26 56  1  0
 29 57  1  0
 29 58  1  0
 29 59  1  0
 30 60  1  0
 31 61  1  0
 31 62  1  0
M  END
>  <Energy>  (265) 
105.4739119180274

>  <compound_id>  (265) 
1601

>  <target_id>  (265) 
1

>  <reference_id>  (265) 
12

>  <inspiration_ids>  (265) 
[12, 98]

>  <energy_score>  (265) 
13.074535647246705

>  <distance_score>  (265) 
4.10356876753184

>  <path>  (265) 
/opt/xchem-fragalysis-2/maxwin/BulkDock/SCRATCH/505732/C1601-P12/C1601-P12.minimised.mol

>  <scratch_subdir>  (265) 
/opt/xchem-fragalysis-2/maxwin/BulkDock/SCRATCH/505732/C1601-P12

>  <fragmenstein_runtime>  (265) 
10.906341075897217

>  <fragmenstein_outcome>  (265) 
too moved

>  <fragmenstein_mode>  (265) 
expansion

>  <fragmenstein_error>  (265) 


$$$$
C1601-P98
     RDKit          3D

 62 66  0  0  0  0  0  0  0  0999 V2000
   18.7368   -3.6688   12.7495 C   0  0  0  0  0  0  0  0  0  0  0  0
   19.3819   -2.4490   13.3616 C   0  0  0  0  0  0  0  0  0  0  0  0
   20.1730   -1.7931   12.7901 O   0  0  0  0  0  0  0  0  0  0  0  0
   18.8125   -2.3028   14.7588 N   0  0  0  0  0  0  0  0  0  0  0  0
   19.1577   -1.3506   15.8528 C   0  0  0  0  0  0  0  0  0  0  0  0
   18.1405   -1.3390   16.9723 C   0  0  0  0  0  0  0  0  0  0  0  0
   18.3404   -2.4705   17.9756 C   0  0  0  0  0  0  0  0  0  0  0  0
   17.4718   -2.3100   19.0921 O   0  0  0  0  0  0  0  0  0  0  0  0
   16.8978   -1.3240   16.1265 C   0  0  0  0  0  0  0  0  0  0  0  0
   15.8091   -2.3652   16.4823 C   0  0  0  0  0  0  0  0  0  0  0  0
   15.9899   -3.7465   15.8923 C   0  0  0  0  0  0  0  0  0  0  0  0
   15.0488   -4.7094   16.6081 C   0  0  0  0  0  0  0  0  0  0  0  0
   13.7776   -4.1141   17.2022 C   0  0  0  0  0  0  0  0  0  0  0  0
   13.2821   -2.9689   16.3613 C   0  0  0  0  0  0  0  0  0  0  0  0
   14.3667   -1.8729   16.2133 C   0  0  0  0  0  0  0  0  0  0  0  0
   14.2476   -1.2113   14.9253 N   0  0  0  0  0  0  0  0  0  0  0  0
   13.3833   -0.0761   15.1536 C   0  0  0  0  0  0  0  0  0  0  0  0
   11.7113   -0.4599   14.5494 S   0  0  0  0  0  0  0  0  0  0  0  0
   11.0661    1.1499   14.4796 C   0  0  0  0  0  0  0  0  0  0  0  0
   10.3132    1.6330   15.4876 C   0  0  0  0  0  0  0  0  0  0  0  0
    9.8425    3.0089   15.4477 C   0  0  0  0  0  0  0  0  0  0  0  0
   10.1071    3.8081   14.3973 C   0  0  0  0  0  0  0  0  0  0  0  0
   10.8603    3.2990   13.3068 C   0  0  0  0  0  0  0  0  0  0  0  0
   11.2341    3.8301   12.1643 N   0  0  0  0  0  0  0  0  0  0  0  0
   11.9753    2.8905   11.4868 N   0  0  0  0  0  0  0  0  0  0  0  0
   12.0247    1.8065   12.2266 C   0  0  0  0  0  0  0  0  0  0  0  0
   11.3260    1.9920   13.3902 N   0  0  0  0  0  0  0  0  0  0  0  0
   13.3483    0.1696   16.5924 N   0  0  0  0  0  0  0  0  0  0  0  0
   13.9054    1.4889   16.9109 C   0  0  0  0  0  0  0  0  0  0  0  0
   14.1866   -0.8143   17.1923 N   0  0  0  0  0  0  0  0  0  0  0  0
   17.5633   -1.4419   14.7560 C   0  0  0  0  0  0  0  0  0  0  0  0
   17.9341   -3.3480   12.0809 H   0  0  0  0  0  0  0  0  0  0  0  0
   18.3344   -4.3364   13.5160 H   0  0  0  0  0  0  0  0  0  0  0  0
   19.4884   -4.2231   12.1803 H   0  0  0  0  0  0  0  0  0  0  0  0
   20.1234   -1.7110   16.2346 H   0  0  0  0  0  0  0  0  0  0  0  0
   19.4178   -0.3499   15.4629 H   0  0  0  0  0  0  0  0  0  0  0  0
   18.2213   -0.3932   17.5245 H   0  0  0  0  0  0  0  0  0  0  0  0
   19.3649   -2.4497   18.3650 H   0  0  0  0  0  0  0  0  0  0  0  0
   18.1942   -3.4647   17.5535 H   0  0  0  0  0  0  0  0  0  0  0  0
   17.7267   -1.4909   19.5503 H   0  0  0  0  0  0  0  0  0  0  0  0
   16.4714   -0.3158   16.1905 H   0  0  0  0  0  0  0  0  0  0  0  0
   15.8505   -2.4973   17.5671 H   0  0  0  0  0  0  0  0  0  0  0  0
   17.0116   -4.1240   15.9780 H   0  0  0  0  0  0  0  0  0  0  0  0
   15.7806   -3.7223   14.8218 H   0  0  0  0  0  0  0  0  0  0  0  0
   15.6006   -5.2043   17.4173 H   0  0  0  0  0  0  0  0  0  0  0  0
   14.7927   -5.4856   15.8974 H   0  0  0  0  0  0  0  0  0  0  0  0
   13.9685   -3.7715   18.2266 H   0  0  0  0  0  0  0  0  0  0  0  0
   13.0086   -4.8857   17.2755 H   0  0  0  0  0  0  0  0  0  0  0  0
   12.3600   -2.5667   16.7939 H   0  0  0  0  0  0  0  0  0  0  0  0
   12.9847   -3.3663   15.3849 H   0  0  0  0  0  0  0  0  0  0  0  0
   13.7917   -1.8149   14.2486 H   0  0  0  0  0  0  0  0  0  0  0  0
   13.7799    0.7679   14.5775 H   0  0  0  0  0  0  0  0  0  0  0  0
   10.0602    1.0353   16.3528 H   0  0  0  0  0  0  0  0  0  0  0  0
    9.2679    3.3775   16.2940 H   0  0  0  0  0  0  0  0  0  0  0  0
    9.7584    4.8347   14.3587 H   0  0  0  0  0  0  0  0  0  0  0  0
   12.5361    0.8906   11.9709 H   0  0  0  0  0  0  0  0  0  0  0  0
   13.2943    2.2808   16.4643 H   0  0  0  0  0  0  0  0  0  0  0  0
   13.8932    1.6574   17.9942 H   0  0  0  0  0  0  0  0  0  0  0  0
   14.9365    1.6117   16.5578 H   0  0  0  0  0  0  0  0  0  0  0  0
   13.8571   -1.1875   18.0788 H   0  0  0  0  0  0  0  0  0  0  0  0
   16.8750   -1.9098   14.0403 H   0  0  0  0  0  0  0  0  0  0  0  0
   17.7578   -0.4614   14.2824 H   0  0  0  0  0  0  0  0  0  0  0  0
  1  2  1  0
  2  3  2  0
  2  4  1  0
  4  5  1  0
  5  6  1  0
  6  7  1  0
  7  8  1  0
  6  9  1  0
  9 10  1  0
 10 11  1  0
 11 12  1  0
 12 13  1  0
 13 14  1  0
 14 15  1  0
 15 16  1  0
 16 17  1  0
 17 18  1  0
 18 19  1  0
 19 20  2  0
 20 21  1  0
 21 22  2  0
 22 23  1  0
 23 24  2  0
 24 25  1  0
 25 26  2  0
 26 27  1  0
 17 28  1  0
 28 29  1  0
 28 30  1  0
  9 31  1  0
 31  4  1  0
 15 10  1  0
 27 19  1  0
 30 15  1  0
 27 23  1  0
  1 32  1  0
  1 33  1  0
  1 34  1  0
  5 35  1  0
  5 36  1  0
  6 37  1  0
  7 38  1  0
  7 39  1  0
  8 40  1  0
  9 41  1  0
 10 42  1  0
 11 43  1  0
 11 44  1  0
 12 45  1  0
 12 46  1  0
 13 47  1  0
 13 48  1  0
 14 49  1  0
 14 50  1  0
 16 51  1  0
 17 52  1  0
 20 53  1  0
 21 54  1  0
 22 55  1  0
 26 56  1  0
 29 57  1  0
 29 58  1  0
 29 59  1  0
 30 60  1  0
 31 61  1  0
 31 62  1  0
M  END
>  <Energy>  (266) 
86.622477241309923

>  <compound_id>  (266) 
1601

>  <target_id>  (266) 
1

>  <reference_id>  (266) 
98

>  <inspiration_ids>  (266) 
[12, 98]

>  <energy_score>  (266) 
-5.776899029472759

>  <distance_score>  (266) 
3.1029912969451754

>  <path>  (266) 
/opt/xchem-fragalysis-2/maxwin/BulkDock/SCRATCH/505732/C1601-P98/C1601-P98.minimised.mol

>  <scratch_subdir>  (266) 
/opt/xchem-fragalysis-2/maxwin/BulkDock/SCRATCH/505732/C1601-P98

>  <fragmenstein_runtime>  (266) 
10.671773433685303

>  <fragmenstein_outcome>  (266) 
too moved

>  <fragmenstein_mode>  (266) 
expansion

>  <fragmenstein_error>  (266) 


$$$$
C1604-P12
     RDKit          3D

 48 51  0  0  0  0  0  0  0  0999 V2000
   17.5720   -3.5427   18.6372 C   0  0  0  0  0  0  0  0  0  0  0  0
   17.5159   -3.3671   17.1321 C   0  0  0  0  0  0  0  0  0  0  0  0
   17.6222   -1.6546   16.6651 S   0  0  0  0  0  0  0  0  0  0  0  0
   19.0128   -1.2744   16.7548 O   0  0  0  0  0  0  0  0  0  0  0  0
   16.4687   -0.8367   17.3091 N   0  0  0  0  0  0  0  0  0  0  0  0
   15.0928   -0.8869   16.7479 C   0  0  0  0  0  0  0  0  0  0  0  0
   14.3520   -2.0657   16.9281 C   0  0  0  0  0  0  0  0  0  0  0  0
   13.1327   -2.1688   16.2625 C   0  0  0  0  0  0  0  0  0  0  0  0
   12.2551   -3.2231   16.1655 N   0  0  0  0  0  0  0  0  0  0  0  0
   11.2225   -2.8763   15.3394 C   0  0  0  0  0  0  0  0  0  0  0  0
   11.3726   -1.5582   14.9895 C   0  0  0  0  0  0  0  0  0  0  0  0
   12.6014   -1.1160   15.5234 C   0  0  0  0  0  0  0  0  0  0  0  0
   13.3101    0.0932   15.4406 C   0  0  0  0  0  0  0  0  0  0  0  0
   14.5740    0.2152   16.0490 C   0  0  0  0  0  0  0  0  0  0  0  0
   15.2784    1.5545   15.9093 C   0  0  0  0  0  0  0  0  0  0  0  0
   16.4400    1.7282   16.7460 N   0  0  0  0  0  0  0  0  0  0  0  0
   14.7466    2.3110   15.1444 O   0  0  0  0  0  0  0  0  0  0  0  0
   17.3467   -1.4698   15.0141 N   0  0  0  0  0  0  0  0  0  0  0  0
   17.1502   -2.6069   14.1402 C   0  0  0  0  0  0  0  0  0  0  0  0
   17.2209   -2.2059   12.6888 C   0  0  0  0  0  0  0  0  0  0  0  0
   16.1105   -1.6128   12.0460 C   0  0  0  0  0  0  0  0  0  0  0  0
   16.1690   -1.2703   10.6911 C   0  0  0  0  0  0  0  0  0  0  0  0
   17.3418   -1.5249   10.0119 C   0  0  0  0  0  0  0  0  0  0  0  0
   18.4329   -2.0774   10.6355 C   0  0  0  0  0  0  0  0  0  0  0  0
   18.4071   -2.4245   11.9675 C   0  0  0  0  0  0  0  0  0  0  0  0
   19.4869   -2.2462    9.7945 O   0  0  0  0  0  0  0  0  0  0  0  0
   18.9462   -1.7098    8.5716 C   0  0  0  0  0  0  0  0  0  0  0  0
   17.5590   -1.3137    8.6837 O   0  0  0  0  0  0  0  0  0  0  0  0
   16.7260   -3.0546   19.1305 H   0  0  0  0  0  0  0  0  0  0  0  0
   17.5456   -4.6059   18.8951 H   0  0  0  0  0  0  0  0  0  0  0  0
   18.4915   -3.1142   19.0490 H   0  0  0  0  0  0  0  0  0  0  0  0
   16.5978   -3.7959   16.7267 H   0  0  0  0  0  0  0  0  0  0  0  0
   18.3635   -3.8819   16.6684 H   0  0  0  0  0  0  0  0  0  0  0  0
   14.7219   -2.8830   17.5323 H   0  0  0  0  0  0  0  0  0  0  0  0
   12.3744   -4.1328   16.5960 H   0  0  0  0  0  0  0  0  0  0  0  0
   10.4588   -3.5927   15.0807 H   0  0  0  0  0  0  0  0  0  0  0  0
   10.7001   -0.9823   14.3695 H   0  0  0  0  0  0  0  0  0  0  0  0
   12.8850    0.9242   14.8815 H   0  0  0  0  0  0  0  0  0  0  0  0
   16.5402    0.8892   17.3704 H   0  0  0  0  0  0  0  0  0  0  0  0
   16.6799    0.8090   17.1926 H   0  0  0  0  0  0  0  0  0  0  0  0
   18.1446   -0.9293   14.6856 H   0  0  0  0  0  0  0  0  0  0  0  0
   16.1781   -3.0708   14.3397 H   0  0  0  0  0  0  0  0  0  0  0  0
   17.9086   -3.3755   14.3303 H   0  0  0  0  0  0  0  0  0  0  0  0
   15.1940   -1.4269   12.6030 H   0  0  0  0  0  0  0  0  0  0  0  0
   15.3158   -0.8303   10.1882 H   0  0  0  0  0  0  0  0  0  0  0  0
   19.2846   -2.8651   12.4293 H   0  0  0  0  0  0  0  0  0  0  0  0
   19.5382   -0.8361    8.2749 H   0  0  0  0  0  0  0  0  0  0  0  0
   19.0261   -2.4726    7.7889 H   0  0  0  0  0  0  0  0  0  0  0  0
  1  2  1  0
  2  3  1  0
  3  4  2  0
  3  5  2  0
  5  6  1  0
  6  7  2  0
  7  8  1  0
  8  9  1  0
  9 10  1  0
 10 11  2  0
 11 12  1  0
 12 13  1  0
 13 14  2  0
 14 15  1  0
 15 16  1  0
 15 17  2  0
  3 18  1  0
 18 19  1  0
 19 20  1  0
 20 21  2  0
 21 22  1  0
 22 23  2  0
 23 24  1  0
 24 25  2  0
 24 26  1  0
 26 27  1  0
 27 28  1  0
 14  6  1  0
 25 20  1  0
 12  8  2  0
 28 23  1  0
  1 29  1  0
  1 30  1  0
  1 31  1  0
  2 32  1  0
  2 33  1  0
  7 34  1  0
  9 35  1  0
 10 36  1  0
 11 37  1  0
 13 38  1  0
 16 39  1  0
 16 40  1  0
 18 41  1  0
 19 42  1  0
 19 43  1  0
 21 44  1  0
 22 45  1  0
 25 46  1  0
 27 47  1  0
 27 48  1  0
M  END
>  <Energy>  (267) 
83.399056004304086

>  <compound_id>  (267) 
1604

>  <target_id>  (267) 
1

>  <reference_id>  (267) 
12

>  <inspiration_ids>  (267) 
[12, 114]

>  <energy_score>  (267) 
83.69616899167414

>  <distance_score>  (267) 
2.239192115955361

>  <path>  (267) 
/opt/xchem-fragalysis-2/maxwin/BulkDock/SCRATCH/505732/C1604-P12/C1604-P12.minimised.mol

>  <scratch_subdir>  (267) 
/opt/xchem-fragalysis-2/maxwin/BulkDock/SCRATCH/505732/C1604-P12

>  <fragmenstein_runtime>  (267) 
36.195085763931274

>  <fragmenstein_outcome>  (267) 
too moved

>  <fragmenstein_mode>  (267) 
expansion

>  <fragmenstein_error>  (267) 


$$$$
C1604-P114
     RDKit          3D

 48 51  0  0  0  0  0  0  0  0999 V2000
   17.9695   -2.0211   18.3950 C   0  0  0  0  0  0  0  0  0  0  0  0
   17.7772   -2.2072   16.9024 C   0  0  0  0  0  0  0  0  0  0  0  0
   17.6637   -0.6528   16.0442 S   0  0  0  0  0  0  0  0  0  0  0  0
   18.9603   -0.0227   16.1471 O   0  0  0  0  0  0  0  0  0  0  0  0
   16.3481    0.1205   16.3561 N   0  0  0  0  0  0  0  0  0  0  0  0
   15.0100   -0.4532   16.0919 C   0  0  0  0  0  0  0  0  0  0  0  0
   14.5649   -1.4723   16.9358 C   0  0  0  0  0  0  0  0  0  0  0  0
   13.4566   -2.1966   16.5188 C   0  0  0  0  0  0  0  0  0  0  0  0
   12.9008   -3.3271   17.0572 N   0  0  0  0  0  0  0  0  0  0  0  0
   11.9142   -3.7719   16.2295 C   0  0  0  0  0  0  0  0  0  0  0  0
   11.7194   -2.8490   15.2329 C   0  0  0  0  0  0  0  0  0  0  0  0
   12.7185   -1.8609   15.3863 C   0  0  0  0  0  0  0  0  0  0  0  0
   13.0793   -0.7188   14.6530 C   0  0  0  0  0  0  0  0  0  0  0  0
   14.2464   -0.0084   15.0003 C   0  0  0  0  0  0  0  0  0  0  0  0
   14.6262    1.1747   14.1319 C   0  0  0  0  0  0  0  0  0  0  0  0
   15.7046    1.9922   14.6350 N   0  0  0  0  0  0  0  0  0  0  0  0
   13.9630    1.2820   13.1375 O   0  0  0  0  0  0  0  0  0  0  0  0
   17.5630   -0.9492   14.4011 N   0  0  0  0  0  0  0  0  0  0  0  0
   16.9168   -2.0847   13.7878 C   0  0  0  0  0  0  0  0  0  0  0  0
   17.1100   -2.0508   12.2926 C   0  0  0  0  0  0  0  0  0  0  0  0
   16.2083   -1.3387   11.4674 C   0  0  0  0  0  0  0  0  0  0  0  0
   16.4052   -1.2693   10.0852 C   0  0  0  0  0  0  0  0  0  0  0  0
   17.4998   -1.9210    9.5585 C   0  0  0  0  0  0  0  0  0  0  0  0
   18.3841   -2.6090   10.3527 C   0  0  0  0  0  0  0  0  0  0  0  0
   18.2234   -2.6859   11.7185 C   0  0  0  0  0  0  0  0  0  0  0  0
   19.3890   -3.1831    9.6408 O   0  0  0  0  0  0  0  0  0  0  0  0
   19.0280   -2.7935    8.3005 C   0  0  0  0  0  0  0  0  0  0  0  0
   17.8192   -1.9992    8.2364 O   0  0  0  0  0  0  0  0  0  0  0  0
   18.9044   -1.4909   18.6041 H   0  0  0  0  0  0  0  0  0  0  0  0
   17.1575   -1.4405   18.8414 H   0  0  0  0  0  0  0  0  0  0  0  0
   18.0127   -2.9929   18.8960 H   0  0  0  0  0  0  0  0  0  0  0  0
   16.8910   -2.8066   16.6878 H   0  0  0  0  0  0  0  0  0  0  0  0
   18.6424   -2.7351   16.4867 H   0  0  0  0  0  0  0  0  0  0  0  0
   15.1055   -1.7499   17.8312 H   0  0  0  0  0  0  0  0  0  0  0  0
   13.1965   -3.7884   17.9090 H   0  0  0  0  0  0  0  0  0  0  0  0
   11.4230   -4.7027   16.4467 H   0  0  0  0  0  0  0  0  0  0  0  0
   10.9796   -2.9103   14.4453 H   0  0  0  0  0  0  0  0  0  0  0  0
   12.4858   -0.4300   13.7879 H   0  0  0  0  0  0  0  0  0  0  0  0
   15.9679    1.6579   15.5972 H   0  0  0  0  0  0  0  0  0  0  0  0
   16.1262    1.5231   15.4769 H   0  0  0  0  0  0  0  0  0  0  0  0
   17.3684   -0.0814   13.9124 H   0  0  0  0  0  0  0  0  0  0  0  0
   15.8466   -2.1204   14.0049 H   0  0  0  0  0  0  0  0  0  0  0  0
   17.3357   -3.0193   14.1788 H   0  0  0  0  0  0  0  0  0  0  0  0
   15.3507   -0.8256   11.8989 H   0  0  0  0  0  0  0  0  0  0  0  0
   15.7142   -0.7263    9.4502 H   0  0  0  0  0  0  0  0  0  0  0  0
   18.9464   -3.2223   12.3236 H   0  0  0  0  0  0  0  0  0  0  0  0
   19.8503   -2.2095    7.8714 H   0  0  0  0  0  0  0  0  0  0  0  0
   18.8866   -3.6963    7.6957 H   0  0  0  0  0  0  0  0  0  0  0  0
  1  2  1  0
  2  3  1  0
  3  4  2  0
  3  5  2  0
  5  6  1  0
  6  7  2  0
  7  8  1  0
  8  9  1  0
  9 10  1  0
 10 11  2  0
 11 12  1  0
 12 13  1  0
 13 14  2  0
 14 15  1  0
 15 16  1  0
 15 17  2  0
  3 18  1  0
 18 19  1  0
 19 20  1  0
 20 21  2  0
 21 22  1  0
 22 23  2  0
 23 24  1  0
 24 25  2  0
 24 26  1  0
 26 27  1  0
 27 28  1  0
 14  6  1  0
 25 20  1  0
 12  8  2  0
 28 23  1  0
  1 29  1  0
  1 30  1  0
  1 31  1  0
  2 32  1  0
  2 33  1  0
  7 34  1  0
  9 35  1  0
 10 36  1  0
 11 37  1  0
 13 38  1  0
 16 39  1  0
 16 40  1  0
 18 41  1  0
 19 42  1  0
 19 43  1  0
 21 44  1  0
 22 45  1  0
 25 46  1  0
 27 47  1  0
 27 48  1  0
M  END
>  <Energy>  (268) 
86.704709450433

>  <compound_id>  (268) 
1604

>  <target_id>  (268) 
1

>  <reference_id>  (268) 
114

>  <inspiration_ids>  (268) 
[12, 114]

>  <energy_score>  (268) 
87.00182243780388

>  <distance_score>  (268) 
2.028767107099709

>  <path>  (268) 
/opt/xchem-fragalysis-2/maxwin/BulkDock/SCRATCH/505732/C1604-P114/C1604-P114.minimised.mol

>  <scratch_subdir>  (268) 
/opt/xchem-fragalysis-2/maxwin/BulkDock/SCRATCH/505732/C1604-P114

>  <fragmenstein_runtime>  (268) 
36.51538109779358

>  <fragmenstein_outcome>  (268) 
too moved

>  <fragmenstein_mode>  (268) 
expansion

>  <fragmenstein_error>  (268) 


$$$$
C1605-P12
     RDKit          3D

 56 59  0  0  0  0  0  0  0  0999 V2000
   15.0030    1.3236   20.8988 C   0  0  0  0  0  0  0  0  0  0  0  0
   15.6661   -0.0146   20.7030 C   0  0  0  0  0  0  0  0  0  0  0  0
   16.7068   -0.1209   19.2646 S   0  0  0  0  0  0  0  0  0  0  0  0
   17.1312    1.1978   18.8601 O   0  0  0  0  0  0  0  0  0  0  0  0
   17.6294   -1.3096   19.5005 N   0  0  0  0  0  0  0  0  0  0  0  0
   18.6867   -1.6759   18.5567 C   0  0  0  0  0  0  0  0  0  0  0  0
   18.2442   -2.4034   17.1921 N   0  0  0  0  0  0  0  0  0  0  0  0
   19.3027   -2.2504   16.1219 C   0  0  0  0  0  0  0  0  0  0  0  0
   20.2246   -2.9335   15.8592 O   0  0  0  0  0  0  0  0  0  0  0  0
   18.9625   -0.9937   15.2940 C   0  0  0  0  0  0  0  0  0  0  0  0
   18.1584    0.0025   15.9294 O   0  0  0  0  0  0  0  0  0  0  0  0
   17.5759    0.8093   14.8946 C   0  0  0  0  0  0  0  0  0  0  0  0
   17.8268    0.1065   13.5712 C   0  0  0  0  0  0  0  0  0  0  0  0
   18.2475   -1.2954   13.9793 C   0  0  0  0  0  0  0  0  0  0  0  0
   17.0298   -2.2097   14.1280 C   0  0  0  0  0  0  0  0  0  0  0  0
   18.0057   -3.4666   18.1236 C   0  0  0  0  0  0  0  0  0  0  0  0
   18.7908   -4.5323   18.5270 C   0  0  0  0  0  0  0  0  0  0  0  0
   18.1375   -5.5180   19.2480 N   0  0  0  0  0  0  0  0  0  0  0  0
   16.8346   -5.2972   19.2983 N   0  0  0  0  0  0  0  0  0  0  0  0
   16.3723   -3.9362   18.4372 S   0  0  0  0  0  0  0  0  0  0  0  0
   15.7731   -0.6536   17.9777 N   0  0  0  0  0  0  0  0  0  0  0  0
   14.6101    0.0787   17.5646 C   0  0  0  0  0  0  0  0  0  0  0  0
   13.8829   -0.6538   16.4799 C   0  0  0  0  0  0  0  0  0  0  0  0
   13.7499   -0.0734   15.1982 C   0  0  0  0  0  0  0  0  0  0  0  0
   13.0375   -0.7162   14.1966 C   0  0  0  0  0  0  0  0  0  0  0  0
   12.4231   -1.8880   14.5419 C   0  0  0  0  0  0  0  0  0  0  0  0
   12.5144   -2.4384   15.7994 C   0  0  0  0  0  0  0  0  0  0  0  0
   13.2924   -1.8879   16.7701 C   0  0  0  0  0  0  0  0  0  0  0  0
   11.6999   -3.5054   15.9593 O   0  0  0  0  0  0  0  0  0  0  0  0
   10.9474   -3.3680   14.7469 C   0  0  0  0  0  0  0  0  0  0  0  0
   11.6345   -2.6268   13.7345 O   0  0  0  0  0  0  0  0  0  0  0  0
   14.4022    1.6194   20.0359 H   0  0  0  0  0  0  0  0  0  0  0  0
   14.3475    1.2982   21.7749 H   0  0  0  0  0  0  0  0  0  0  0  0
   15.7489    2.1084   21.0624 H   0  0  0  0  0  0  0  0  0  0  0  0
   14.9237   -0.8167   20.6360 H   0  0  0  0  0  0  0  0  0  0  0  0
   16.3018   -0.2251   21.5704 H   0  0  0  0  0  0  0  0  0  0  0  0
   19.5492   -2.1609   19.0489 H   0  0  0  0  0  0  0  0  0  0  0  0
   19.1523   -0.7413   18.2063 H   0  0  0  0  0  0  0  0  0  0  0  0
   19.9287   -0.5114   15.0869 H   0  0  0  0  0  0  0  0  0  0  0  0
   16.5111    0.9133   15.1052 H   0  0  0  0  0  0  0  0  0  0  0  0
   18.0280    1.8056   14.9175 H   0  0  0  0  0  0  0  0  0  0  0  0
   16.9596    0.1445   12.9051 H   0  0  0  0  0  0  0  0  0  0  0  0
   18.6552    0.6039   13.0515 H   0  0  0  0  0  0  0  0  0  0  0  0
   18.9286   -1.7405   13.2457 H   0  0  0  0  0  0  0  0  0  0  0  0
   17.3356   -3.2252   14.3999 H   0  0  0  0  0  0  0  0  0  0  0  0
   16.3366   -1.8510   14.8940 H   0  0  0  0  0  0  0  0  0  0  0  0
   16.4806   -2.2743   13.1826 H   0  0  0  0  0  0  0  0  0  0  0  0
   19.8475   -4.6495   18.3258 H   0  0  0  0  0  0  0  0  0  0  0  0
   16.4188   -0.6906   17.1929 H   0  0  0  0  0  0  0  0  0  0  0  0
   14.8876    1.0856   17.2316 H   0  0  0  0  0  0  0  0  0  0  0  0
   13.9114    0.2060   18.3961 H   0  0  0  0  0  0  0  0  0  0  0  0
   14.1966    0.8949   14.9844 H   0  0  0  0  0  0  0  0  0  0  0  0
   12.9246   -0.2899   13.2080 H   0  0  0  0  0  0  0  0  0  0  0  0
   13.3885   -2.3631   17.7389 H   0  0  0  0  0  0  0  0  0  0  0  0
   10.7481   -4.3554   14.3660 H   0  0  0  0  0  0  0  0  0  0  0  0
    9.9931   -2.8730   14.9611 H   0  0  0  0  0  0  0  0  0  0  0  0
  1  2  1  0
  2  3  1  0
  3  4  2  0
  3  5  2  0
  5  6  1  0
  6  7  1  0
  7  8  1  0
  8  9  2  0
  8 10  1  0
 10 11  1  0
 11 12  1  0
 12 13  1  0
 13 14  1  0
 14 15  1  0
  7 16  1  0
 16 17  2  0
 17 18  1  0
 18 19  2  0
 19 20  1  0
  3 21  1  0
 21 22  1  0
 22 23  1  0
 23 24  2  0
 24 25  1  0
 25 26  2  0
 26 27  1  0
 27 28  2  0
 27 29  1  0
 29 30  1  0
 30 31  1  0
 14 10  1  0
 20 16  1  0
 28 23  1  0
 31 26  1  0
  1 32  1  0
  1 33  1  0
  1 34  1  0
  2 35  1  0
  2 36  1  0
  6 37  1  0
  6 38  1  0
 10 39  1  0
 12 40  1  0
 12 41  1  0
 13 42  1  0
 13 43  1  0
 14 44  1  0
 15 45  1  0
 15 46  1  0
 15 47  1  0
 17 48  1  0
 21 49  1  0
 22 50  1  0
 22 51  1  0
 24 52  1  0
 25 53  1  0
 28 54  1  0
 30 55  1  0
 30 56  1  0
M  END
>  <Energy>  (269) 
3.5249130769638661

>  <compound_id>  (269) 
1605

>  <target_id>  (269) 
1

>  <reference_id>  (269) 
12

>  <inspiration_ids>  (269) 
[12, 117]

>  <energy_score>  (269) 
-32.36872082644251

>  <distance_score>  (269) 
2.5058004292563814

>  <path>  (269) 
/opt/xchem-fragalysis-2/maxwin/BulkDock/SCRATCH/505732/C1605-P12/C1605-P12.minimised.mol

>  <scratch_subdir>  (269) 
/opt/xchem-fragalysis-2/maxwin/BulkDock/SCRATCH/505732/C1605-P12

>  <fragmenstein_runtime>  (269) 
12.505894660949707

>  <fragmenstein_outcome>  (269) 
too moved

>  <fragmenstein_mode>  (269) 
expansion

>  <fragmenstein_error>  (269) 


$$$$
C1605-P117
     RDKit          3D

 56 59  0  0  0  0  0  0  0  0999 V2000
   15.1632    1.1934   20.8777 C   0  0  0  0  0  0  0  0  0  0  0  0
   15.8225   -0.1514   20.7053 C   0  0  0  0  0  0  0  0  0  0  0  0
   16.7936   -0.3223   19.2250 S   0  0  0  0  0  0  0  0  0  0  0  0
   17.2535    0.9718   18.7861 O   0  0  0  0  0  0  0  0  0  0  0  0
   17.6533   -1.5651   19.4087 N   0  0  0  0  0  0  0  0  0  0  0  0
   18.8236   -1.8601   18.5692 C   0  0  0  0  0  0  0  0  0  0  0  0
   18.5623   -2.4133   17.0743 N   0  0  0  0  0  0  0  0  0  0  0  0
   19.7586   -2.1479   16.1721 C   0  0  0  0  0  0  0  0  0  0  0  0
   20.7089   -2.8104   15.9501 O   0  0  0  0  0  0  0  0  0  0  0  0
   19.5284   -0.8212   15.4135 C   0  0  0  0  0  0  0  0  0  0  0  0
   18.8152    0.1699   16.1655 O   0  0  0  0  0  0  0  0  0  0  0  0
   17.8426    0.7688   15.3042 C   0  0  0  0  0  0  0  0  0  0  0  0
   17.4539   -0.3251   14.3405 C   0  0  0  0  0  0  0  0  0  0  0  0
   18.7965   -0.9726   14.0693 C   0  0  0  0  0  0  0  0  0  0  0  0
   18.6765   -2.3717   13.4857 C   0  0  0  0  0  0  0  0  0  0  0  0
   18.2010   -3.5884   17.8379 C   0  0  0  0  0  0  0  0  0  0  0  0
   16.9793   -4.0389   18.3285 C   0  0  0  0  0  0  0  0  0  0  0  0
   16.9665   -5.3457   18.7932 N   0  0  0  0  0  0  0  0  0  0  0  0
   18.1245   -5.9475   18.5831 N   0  0  0  0  0  0  0  0  0  0  0  0
   19.2290   -4.9789   17.7821 S   0  0  0  0  0  0  0  0  0  0  0  0
   15.7833   -0.8377   17.9930 N   0  0  0  0  0  0  0  0  0  0  0  0
   14.6762   -0.0357   17.5584 C   0  0  0  0  0  0  0  0  0  0  0  0
   13.9286   -0.7429   16.4719 C   0  0  0  0  0  0  0  0  0  0  0  0
   13.8601   -0.1865   15.1750 C   0  0  0  0  0  0  0  0  0  0  0  0
   13.1323   -0.8126   14.1724 C   0  0  0  0  0  0  0  0  0  0  0  0
   12.4520   -1.9458   14.5265 C   0  0  0  0  0  0  0  0  0  0  0  0
   12.4949   -2.4759   15.7951 C   0  0  0  0  0  0  0  0  0  0  0  0
   13.2725   -1.9402   16.7734 C   0  0  0  0  0  0  0  0  0  0  0  0
   11.6430   -3.5115   15.9574 O   0  0  0  0  0  0  0  0  0  0  0  0
   10.9241   -3.3763   14.7250 C   0  0  0  0  0  0  0  0  0  0  0  0
   11.6483   -2.6658   13.7161 O   0  0  0  0  0  0  0  0  0  0  0  0
   14.5035    1.4439   20.0447 H   0  0  0  0  0  0  0  0  0  0  0  0
   14.5669    1.2079   21.7955 H   0  0  0  0  0  0  0  0  0  0  0  0
   15.9121    1.9886   20.9536 H   0  0  0  0  0  0  0  0  0  0  0  0
   15.0796   -0.9558   20.7091 H   0  0  0  0  0  0  0  0  0  0  0  0
   16.5024   -0.3237   21.5472 H   0  0  0  0  0  0  0  0  0  0  0  0
   19.5921   -2.4402   19.1126 H   0  0  0  0  0  0  0  0  0  0  0  0
   19.3563   -0.9117   18.4024 H   0  0  0  0  0  0  0  0  0  0  0  0
   20.5289   -0.4057   15.2352 H   0  0  0  0  0  0  0  0  0  0  0  0
   17.0011    1.1424   15.8899 H   0  0  0  0  0  0  0  0  0  0  0  0
   18.3114    1.6142   14.7882 H   0  0  0  0  0  0  0  0  0  0  0  0
   16.7816   -1.0394   14.8287 H   0  0  0  0  0  0  0  0  0  0  0  0
   16.9635    0.0568   13.4410 H   0  0  0  0  0  0  0  0  0  0  0  0
   19.3266   -0.3517   13.3331 H   0  0  0  0  0  0  0  0  0  0  0  0
   19.6650   -2.8083   13.3116 H   0  0  0  0  0  0  0  0  0  0  0  0
   18.1124   -3.0424   14.1420 H   0  0  0  0  0  0  0  0  0  0  0  0
   18.1530   -2.3390   12.5240 H   0  0  0  0  0  0  0  0  0  0  0  0
   16.0602   -3.4733   18.3699 H   0  0  0  0  0  0  0  0  0  0  0  0
   16.4016   -0.9961   17.2059 H   0  0  0  0  0  0  0  0  0  0  0  0
   13.9742    0.1408   18.3785 H   0  0  0  0  0  0  0  0  0  0  0  0
   15.0132    0.9491   17.2167 H   0  0  0  0  0  0  0  0  0  0  0  0
   14.3768    0.7439   14.9480 H   0  0  0  0  0  0  0  0  0  0  0  0
   13.0679   -0.4066   13.1706 H   0  0  0  0  0  0  0  0  0  0  0  0
   13.3274   -2.4023   17.7519 H   0  0  0  0  0  0  0  0  0  0  0  0
   10.7235   -4.3689   14.3606 H   0  0  0  0  0  0  0  0  0  0  0  0
    9.9724   -2.8641   14.9098 H   0  0  0  0  0  0  0  0  0  0  0  0
  1  2  1  0
  2  3  1  0
  3  4  2  0
  3  5  2  0
  5  6  1  0
  6  7  1  0
  7  8  1  0
  8  9  2  0
  8 10  1  0
 10 11  1  0
 11 12  1  0
 12 13  1  0
 13 14  1  0
 14 15  1  0
  7 16  1  0
 16 17  2  0
 17 18  1  0
 18 19  2  0
 19 20  1  0
  3 21  1  0
 21 22  1  0
 22 23  1  0
 23 24  2  0
 24 25  1  0
 25 26  2  0
 26 27  1  0
 27 28  2  0
 27 29  1  0
 29 30  1  0
 30 31  1  0
 14 10  1  0
 20 16  1  0
 28 23  1  0
 31 26  1  0
  1 32  1  0
  1 33  1  0
  1 34  1  0
  2 35  1  0
  2 36  1  0
  6 37  1  0
  6 38  1  0
 10 39  1  0
 12 40  1  0
 12 41  1  0
 13 42  1  0
 13 43  1  0
 14 44  1  0
 15 45  1  0
 15 46  1  0
 15 47  1  0
 17 48  1  0
 21 49  1  0
 22 50  1  0
 22 51  1  0
 24 52  1  0
 25 53  1  0
 28 54  1  0
 30 55  1  0
 30 56  1  0
M  END
>  <Energy>  (270) 
3.1446726487350585

>  <compound_id>  (270) 
1605

>  <target_id>  (270) 
1

>  <reference_id>  (270) 
117

>  <inspiration_ids>  (270) 
[12, 117]

>  <energy_score>  (270) 
-32.74896125467143

>  <distance_score>  (270) 
2.581670704030067

>  <path>  (270) 
/opt/xchem-fragalysis-2/maxwin/BulkDock/SCRATCH/505732/C1605-P117/C1605-P117.minimised.mol

>  <scratch_subdir>  (270) 
/opt/xchem-fragalysis-2/maxwin/BulkDock/SCRATCH/505732/C1605-P117

>  <fragmenstein_runtime>  (270) 
13.059720993041992

>  <fragmenstein_outcome>  (270) 
too moved

>  <fragmenstein_mode>  (270) 
expansion

>  <fragmenstein_error>  (270) 


$$$$
C498-P12
     RDKit          3D

 62 65  0  0  0  0  0  0  0  0999 V2000
   18.4883    2.7273   12.5214 C   0  0  0  0  0  0  0  0  0  0  0  0
   18.1171    1.2891   12.2213 C   0  0  0  0  0  0  0  0  0  0  0  0
   16.3608    1.0450   12.0340 S   0  0  0  0  0  0  0  0  0  0  0  0
   15.6841    1.6642   13.1509 O   0  0  0  0  0  0  0  0  0  0  0  0
   16.1431   -0.3782   11.5193 N   0  0  0  0  0  0  0  0  0  0  0  0
   14.8683   -1.0878   11.7283 C   0  0  0  0  0  0  0  0  0  0  0  0
   14.7994   -2.0031   12.9703 C   0  0  0  0  0  0  0  0  0  0  0  0
   15.3367   -1.4221   14.3567 N   0  0  0  0  0  0  0  0  0  0  0  0
   16.1189   -2.0824   15.4586 C   0  0  0  0  0  0  0  0  0  0  0  0
   16.4489   -3.2033   15.5917 O   0  0  0  0  0  0  0  0  0  0  0  0
   16.5133   -1.0940   16.4991 C   0  0  0  0  0  0  0  0  0  0  0  0
   16.2541    0.2634   16.3401 C   0  0  0  0  0  0  0  0  0  0  0  0
   16.6529    1.1130   17.3429 C   0  0  0  0  0  0  0  0  0  0  0  0
   17.2721    0.7057   18.4733 N   0  0  0  0  0  0  0  0  0  0  0  0
   17.5041   -0.6181   18.6054 C   0  0  0  0  0  0  0  0  0  0  0  0
   17.1475   -1.5540   17.6547 C   0  0  0  0  0  0  0  0  0  0  0  0
   13.8012   -1.4493   14.6544 C   0  0  0  0  0  0  0  0  0  0  0  0
   13.0784   -0.3390   14.1456 C   0  0  0  0  0  0  0  0  0  0  0  0
   11.7051   -0.2404   14.2834 C   0  0  0  0  0  0  0  0  0  0  0  0
   11.0538    0.7822   13.7110 F   0  0  0  0  0  0  0  0  0  0  0  0
   11.0081   -1.1789   15.0053 C   0  0  0  0  0  0  0  0  0  0  0  0
   11.7105   -2.1844   15.6476 C   0  0  0  0  0  0  0  0  0  0  0  0
   13.1100   -2.2981   15.5656 C   0  0  0  0  0  0  0  0  0  0  0  0
   13.6756   -3.3219   16.5116 C   0  0  0  0  0  0  0  0  0  0  0  0
   15.8427    2.0317   10.7404 N   0  0  0  0  0  0  0  0  0  0  0  0
   14.4733    1.8748   10.2764 C   0  0  0  0  0  0  0  0  0  0  0  0
   13.9806    2.9687    9.3588 C   0  0  0  0  0  0  0  0  0  0  0  0
   13.8382    4.2973    9.8238 C   0  0  0  0  0  0  0  0  0  0  0  0
   13.2723    5.2871    9.0120 C   0  0  0  0  0  0  0  0  0  0  0  0
   12.8450    4.9208    7.7543 C   0  0  0  0  0  0  0  0  0  0  0  0
   12.9784    3.6343    7.2928 C   0  0  0  0  0  0  0  0  0  0  0  0
   13.5483    2.6424    8.0610 C   0  0  0  0  0  0  0  0  0  0  0  0
   12.4673    3.4722    6.0436 O   0  0  0  0  0  0  0  0  0  0  0  0
   12.0222    4.8169    5.7567 C   0  0  0  0  0  0  0  0  0  0  0  0
   12.2422    5.7361    6.8487 O   0  0  0  0  0  0  0  0  0  0  0  0
   18.0045    3.0796   13.4379 H   0  0  0  0  0  0  0  0  0  0  0  0
   19.5710    2.8181   12.6536 H   0  0  0  0  0  0  0  0  0  0  0  0
   18.1915    3.3947   11.7067 H   0  0  0  0  0  0  0  0  0  0  0  0
   18.6015    0.9510   11.3000 H   0  0  0  0  0  0  0  0  0  0  0  0
   18.4386    0.6406   13.0429 H   0  0  0  0  0  0  0  0  0  0  0  0
   14.0268   -0.3962   11.7023 H   0  0  0  0  0  0  0  0  0  0  0  0
   14.7306   -1.7351   10.8529 H   0  0  0  0  0  0  0  0  0  0  0  0
   13.8743   -2.5998   12.9301 H   0  0  0  0  0  0  0  0  0  0  0  0
   15.5717   -2.7641   12.7892 H   0  0  0  0  0  0  0  0  0  0  0  0
   15.7686    0.6777   15.4677 H   0  0  0  0  0  0  0  0  0  0  0  0
   16.4815    2.1836   17.2714 H   0  0  0  0  0  0  0  0  0  0  0  0
   18.0014   -0.9131   19.5250 H   0  0  0  0  0  0  0  0  0  0  0  0
   17.3618   -2.6059   17.8078 H   0  0  0  0  0  0  0  0  0  0  0  0
   13.5868    0.4689   13.6318 H   0  0  0  0  0  0  0  0  0  0  0  0
    9.9273   -1.1192   15.0658 H   0  0  0  0  0  0  0  0  0  0  0  0
   11.1530   -2.9176   16.2212 H   0  0  0  0  0  0  0  0  0  0  0  0
   14.2544   -2.8313   17.2986 H   0  0  0  0  0  0  0  0  0  0  0  0
   14.2848   -4.0578   15.9906 H   0  0  0  0  0  0  0  0  0  0  0  0
   12.8936   -3.8975   17.0213 H   0  0  0  0  0  0  0  0  0  0  0  0
   15.9409    2.9748   11.0960 H   0  0  0  0  0  0  0  0  0  0  0  0
   14.4053    0.9218    9.7468 H   0  0  0  0  0  0  0  0  0  0  0  0
   13.7752    1.8299   11.1218 H   0  0  0  0  0  0  0  0  0  0  0  0
   14.1454    4.5602   10.8343 H   0  0  0  0  0  0  0  0  0  0  0  0
   13.1559    6.3059    9.3647 H   0  0  0  0  0  0  0  0  0  0  0  0
   13.6286    1.6322    7.6712 H   0  0  0  0  0  0  0  0  0  0  0  0
   10.9495    4.7889    5.5337 H   0  0  0  0  0  0  0  0  0  0  0  0
   12.5580    5.1837    4.8736 H   0  0  0  0  0  0  0  0  0  0  0  0
  1  2  1  0
  2  3  1  0
  3  4  2  0
  3  5  2  0
  5  6  1  0
  6  7  1  0
  7  8  1  0
  8  9  1  0
  9 10  2  0
  9 11  1  0
 11 12  2  0
 12 13  1  0
 13 14  2  0
 14 15  1  0
 15 16  2  0
  8 17  1  0
 17 18  2  0
 18 19  1  0
 19 20  1  0
 19 21  2  0
 21 22  1  0
 22 23  2  0
 23 24  1  0
  3 25  1  0
 25 26  1  0
 26 27  1  0
 27 28  2  0
 28 29  1  0
 29 30  2  0
 30 31  1  0
 31 32  2  0
 31 33  1  0
 33 34  1  0
 34 35  1  0
 16 11  1  0
 23 17  1  0
 32 27  1  0
 35 30  1  0
  1 36  1  0
  1 37  1  0
  1 38  1  0
  2 39  1  0
  2 40  1  0
  6 41  1  0
  6 42  1  0
  7 43  1  0
  7 44  1  0
 12 45  1  0
 13 46  1  0
 15 47  1  0
 16 48  1  0
 18 49  1  0
 21 50  1  0
 22 51  1  0
 24 52  1  0
 24 53  1  0
 24 54  1  0
 25 55  1  0
 26 56  1  0
 26 57  1  0
 28 58  1  0
 29 59  1  0
 32 60  1  0
 34 61  1  0
 34 62  1  0
M  END
>  <Energy>  (271) 
43.245695333168342

>  <compound_id>  (271) 
498

>  <target_id>  (271) 
1

>  <reference_id>  (271) 
12

>  <inspiration_ids>  (271) 
[12, 122]

>  <energy_score>  (271) 
1.4614379609262471

>  <distance_score>  (271) 
1.7617975609648737

>  <path>  (271) 
/opt/xchem-fragalysis-2/maxwin/BulkDock/SCRATCH/505732/C498-P12/C498-P12.minimised.mol

>  <scratch_subdir>  (271) 
/opt/xchem-fragalysis-2/maxwin/BulkDock/SCRATCH/505732/C498-P12

>  <fragmenstein_runtime>  (271) 
182.1043381690979

>  <fragmenstein_outcome>  (271) 
too moved

>  <fragmenstein_mode>  (271) 
expansion

>  <fragmenstein_error>  (271) 


$$$$
C498-P122
     RDKit          3D

 62 65  0  0  0  0  0  0  0  0999 V2000
   19.1346    1.5919   12.9260 C   0  0  0  0  0  0  0  0  0  0  0  0
   18.4730    0.2596   12.6377 C   0  0  0  0  0  0  0  0  0  0  0  0
   16.8989    0.4406   11.8260 S   0  0  0  0  0  0  0  0  0  0  0  0
   16.0959    1.4247   12.5151 O   0  0  0  0  0  0  0  0  0  0  0  0
   16.4242   -0.9309   11.3446 N   0  0  0  0  0  0  0  0  0  0  0  0
   15.0195   -1.3220   11.5835 C   0  0  0  0  0  0  0  0  0  0  0  0
   14.8023   -2.1005   12.8971 C   0  0  0  0  0  0  0  0  0  0  0  0
   15.3598   -1.3819   14.2126 N   0  0  0  0  0  0  0  0  0  0  0  0
   16.1726   -1.9221   15.3519 C   0  0  0  0  0  0  0  0  0  0  0  0
   16.5227   -3.0196   15.5832 O   0  0  0  0  0  0  0  0  0  0  0  0
   16.4566   -0.8536   16.3404 C   0  0  0  0  0  0  0  0  0  0  0  0
   16.7421   -1.2290   17.6410 C   0  0  0  0  0  0  0  0  0  0  0  0
   16.9592   -0.2243   18.5558 C   0  0  0  0  0  0  0  0  0  0  0  0
   16.9203    1.0950   18.2728 N   0  0  0  0  0  0  0  0  0  0  0  0
   16.6401    1.4277   17.0014 C   0  0  0  0  0  0  0  0  0  0  0  0
   16.4031    0.4943   16.0116 C   0  0  0  0  0  0  0  0  0  0  0  0
   13.8475   -1.4015   14.5413 C   0  0  0  0  0  0  0  0  0  0  0  0
   13.1409   -0.2976   13.9924 C   0  0  0  0  0  0  0  0  0  0  0  0
   11.7820   -0.1407   14.1979 C   0  0  0  0  0  0  0  0  0  0  0  0
   11.1346    0.8736   13.6060 F   0  0  0  0  0  0  0  0  0  0  0  0
   11.0917   -1.0093   15.0118 C   0  0  0  0  0  0  0  0  0  0  0  0
   11.7828   -2.0229   15.6565 C   0  0  0  0  0  0  0  0  0  0  0  0
   13.1659   -2.2153   15.4927 C   0  0  0  0  0  0  0  0  0  0  0  0
   13.7274   -3.2775   16.3998 C   0  0  0  0  0  0  0  0  0  0  0  0
   17.1859    1.1150   10.3016 N   0  0  0  0  0  0  0  0  0  0  0  0
   16.1031    1.8391    9.6503 C   0  0  0  0  0  0  0  0  0  0  0  0
   16.1307    1.6391    8.1523 C   0  0  0  0  0  0  0  0  0  0  0  0
   16.6173    2.6469    7.2915 C   0  0  0  0  0  0  0  0  0  0  0  0
   16.6393    2.4556    5.9052 C   0  0  0  0  0  0  0  0  0  0  0  0
   16.1807    1.2524    5.4131 C   0  0  0  0  0  0  0  0  0  0  0  0
   15.7213    0.2599    6.2440 C   0  0  0  0  0  0  0  0  0  0  0  0
   15.6820    0.4202    7.6109 C   0  0  0  0  0  0  0  0  0  0  0  0
   15.3388   -0.8540    5.5664 O   0  0  0  0  0  0  0  0  0  0  0  0
   15.5325   -0.4181    4.2026 C   0  0  0  0  0  0  0  0  0  0  0  0
   16.1298    0.8941    4.1027 O   0  0  0  0  0  0  0  0  0  0  0  0
   19.3107    2.1555   12.0044 H   0  0  0  0  0  0  0  0  0  0  0  0
   18.5128    2.2091   13.5824 H   0  0  0  0  0  0  0  0  0  0  0  0
   20.0988    1.4374   13.4200 H   0  0  0  0  0  0  0  0  0  0  0  0
   19.1107   -0.3559   11.9954 H   0  0  0  0  0  0  0  0  0  0  0  0
   18.2940   -0.2835   13.5701 H   0  0  0  0  0  0  0  0  0  0  0  0
   14.3538   -0.4587   11.5007 H   0  0  0  0  0  0  0  0  0  0  0  0
   14.7441   -1.9921   10.7614 H   0  0  0  0  0  0  0  0  0  0  0  0
   13.8098   -2.5829   12.8659 H   0  0  0  0  0  0  0  0  0  0  0  0
   15.4948   -2.9490   12.8427 H   0  0  0  0  0  0  0  0  0  0  0  0
   16.7885   -2.2699   17.9415 H   0  0  0  0  0  0  0  0  0  0  0  0
   17.1830   -0.4612   19.5934 H   0  0  0  0  0  0  0  0  0  0  0  0
   16.6046    2.4928   16.7918 H   0  0  0  0  0  0  0  0  0  0  0  0
   16.1726    0.8397   15.0118 H   0  0  0  0  0  0  0  0  0  0  0  0
   13.6564    0.4552   13.4020 H   0  0  0  0  0  0  0  0  0  0  0  0
   10.0199   -0.8967   15.1288 H   0  0  0  0  0  0  0  0  0  0  0  0
   11.2273   -2.7042   16.2916 H   0  0  0  0  0  0  0  0  0  0  0  0
   12.9441   -3.9206   16.8191 H   0  0  0  0  0  0  0  0  0  0  0  0
   14.2465   -2.8161   17.2435 H   0  0  0  0  0  0  0  0  0  0  0  0
   14.3961   -3.9523   15.8685 H   0  0  0  0  0  0  0  0  0  0  0  0
   17.3707    0.2772    9.7566 H   0  0  0  0  0  0  0  0  0  0  0  0
   15.1188    1.5069   10.0045 H   0  0  0  0  0  0  0  0  0  0  0  0
   16.1759    2.9045    9.8966 H   0  0  0  0  0  0  0  0  0  0  0  0
   16.9818    3.5865    7.7025 H   0  0  0  0  0  0  0  0  0  0  0  0
   17.0067    3.2260    5.2367 H   0  0  0  0  0  0  0  0  0  0  0  0
   15.3117   -0.3788    8.2450 H   0  0  0  0  0  0  0  0  0  0  0  0
   16.1903   -1.1368    3.7007 H   0  0  0  0  0  0  0  0  0  0  0  0
   14.5659   -0.4109    3.6876 H   0  0  0  0  0  0  0  0  0  0  0  0
  1  2  1  0
  2  3  1  0
  3  4  2  0
  3  5  2  0
  5  6  1  0
  6  7  1  0
  7  8  1  0
  8  9  1  0
  9 10  2  0
  9 11  1  0
 11 12  2  0
 12 13  1  0
 13 14  2  0
 14 15  1  0
 15 16  2  0
  8 17  1  0
 17 18  2  0
 18 19  1  0
 19 20  1  0
 19 21  2  0
 21 22  1  0
 22 23  2  0
 23 24  1  0
  3 25  1  0
 25 26  1  0
 26 27  1  0
 27 28  2  0
 28 29  1  0
 29 30  2  0
 30 31  1  0
 31 32  2  0
 31 33  1  0
 33 34  1  0
 34 35  1  0
 16 11  1  0
 23 17  1  0
 32 27  1  0
 35 30  1  0
  1 36  1  0
  1 37  1  0
  1 38  1  0
  2 39  1  0
  2 40  1  0
  6 41  1  0
  6 42  1  0
  7 43  1  0
  7 44  1  0
 12 45  1  0
 13 46  1  0
 15 47  1  0
 16 48  1  0
 18 49  1  0
 21 50  1  0
 22 51  1  0
 24 52  1  0
 24 53  1  0
 24 54  1  0
 25 55  1  0
 26 56  1  0
 26 57  1  0
 28 58  1  0
 29 59  1  0
 32 60  1  0
 34 61  1  0
 34 62  1  0
M  END
>  <Energy>  (272) 
34.325299215011484

>  <compound_id>  (272) 
498

>  <target_id>  (272) 
1

>  <reference_id>  (272) 
122

>  <inspiration_ids>  (272) 
[12, 122]

>  <energy_score>  (272) 
-7.458958157231223

>  <distance_score>  (272) 
2.369062894585408

>  <path>  (272) 
/opt/xchem-fragalysis-2/maxwin/BulkDock/SCRATCH/505732/C498-P122/C498-P122.minimised.mol

>  <scratch_subdir>  (272) 
/opt/xchem-fragalysis-2/maxwin/BulkDock/SCRATCH/505732/C498-P122

>  <fragmenstein_runtime>  (272) 
183.76692175865173

>  <fragmenstein_outcome>  (272) 
too moved

>  <fragmenstein_mode>  (272) 
expansion

>  <fragmenstein_error>  (272) 


$$$$
C1608-P12
     RDKit          3D

 58 60  0  0  0  0  0  0  0  0999 V2000
   11.9416   -4.9270   11.9371 C   0  0  0  0  0  0  0  0  0  0  0  0
   11.5585   -3.8723   13.0864 C   0  0  0  0  0  0  0  0  0  0  0  0
   12.5476   -2.8019   13.5384 C   0  0  0  0  0  0  0  0  0  0  0  0
   13.2281   -2.2014   12.8156 O   0  0  0  0  0  0  0  0  0  0  0  0
   12.4871   -2.8094   15.0702 N   0  0  0  0  0  0  0  0  0  0  0  0
   13.3095   -2.1554   16.0313 C   0  0  0  0  0  0  0  0  0  0  0  0
   12.8733   -0.7750   16.4935 C   0  0  0  0  0  0  0  0  0  0  0  0
   13.7897   -0.1871   17.6198 C   0  0  0  0  0  0  0  0  0  0  0  0
   14.9172   -1.1171   18.0453 C   0  0  0  0  0  0  0  0  0  0  0  0
   14.3776   -2.5703   18.2671 C   0  0  0  0  0  0  0  0  0  0  0  0
   13.5544   -3.1441   17.1483 C   0  0  0  0  0  0  0  0  0  0  0  0
   14.2946   -4.2554   16.6333 O   0  0  0  0  0  0  0  0  0  0  0  0
   16.0084   -1.0002   17.0456 C   0  0  0  0  0  0  0  0  0  0  0  0
   16.0485   -0.3515   15.8310 C   0  0  0  0  0  0  0  0  0  0  0  0
   17.0177   -0.7637   14.9727 C   0  0  0  0  0  0  0  0  0  0  0  0
   17.7743   -1.8988   15.3134 C   0  0  0  0  0  0  0  0  0  0  0  0
   18.1583   -2.7862   14.1637 C   0  0  0  0  0  0  0  0  0  0  0  0
   17.0169   -2.8373   13.2203 N   0  0  0  0  0  0  0  0  0  0  0  0
   17.1959   -2.1442   11.7162 S   0  0  0  0  0  0  0  0  0  0  0  0
   17.3413   -3.2371   10.7848 O   0  0  0  0  0  0  0  0  0  0  0  0
   18.2037   -1.1084   11.8070 O   0  0  0  0  0  0  0  0  0  0  0  0
   15.6115   -1.3622   11.4437 C   0  0  0  0  0  0  0  0  0  0  0  0
   15.7033   -0.3034   10.3609 C   0  0  0  0  0  0  0  0  0  0  0  0
   17.9624   -2.2462   16.6614 C   0  0  0  0  0  0  0  0  0  0  0  0
   17.1038   -1.6624   17.5478 C   0  0  0  0  0  0  0  0  0  0  0  0
   17.0657   -1.7162   18.9200 O   0  0  0  0  0  0  0  0  0  0  0  0
   15.8712   -0.8859   19.2453 C   0  0  0  0  0  0  0  0  0  0  0  0
   16.2808    0.5592   19.5337 C   0  0  0  0  0  0  0  0  0  0  0  0
   11.7854   -5.9750   12.0762 H   0  0  0  0  0  0  0  0  0  0  0  0
   11.3200   -4.8509   11.0569 H   0  0  0  0  0  0  0  0  0  0  0  0
   12.9644   -4.8147   11.5722 H   0  0  0  0  0  0  0  0  0  0  0  0
   10.8602   -3.2046   12.6868 H   0  0  0  0  0  0  0  0  0  0  0  0
   11.0178   -4.3184   13.9145 H   0  0  0  0  0  0  0  0  0  0  0  0
   11.8294   -3.5153   15.3792 H   0  0  0  0  0  0  0  0  0  0  0  0
   14.2348   -2.0420   15.4637 H   0  0  0  0  0  0  0  0  0  0  0  0
   12.8681   -0.0851   15.6399 H   0  0  0  0  0  0  0  0  0  0  0  0
   11.8352   -0.8154   16.8251 H   0  0  0  0  0  0  0  0  0  0  0  0
   13.2298    0.0517   18.5077 H   0  0  0  0  0  0  0  0  0  0  0  0
   14.1517    0.8003   17.3035 H   0  0  0  0  0  0  0  0  0  0  0  0
   15.1900   -3.2699   18.5089 H   0  0  0  0  0  0  0  0  0  0  0  0
   13.7679   -2.5693   19.1780 H   0  0  0  0  0  0  0  0  0  0  0  0
   12.6182   -3.5464   17.5498 H   0  0  0  0  0  0  0  0  0  0  0  0
   13.6926   -4.7728   16.0694 H   0  0  0  0  0  0  0  0  0  0  0  0
   15.2977    0.3459   15.4839 H   0  0  0  0  0  0  0  0  0  0  0  0
   17.0236   -0.3596   13.9667 H   0  0  0  0  0  0  0  0  0  0  0  0
   18.3506   -3.8065   14.5147 H   0  0  0  0  0  0  0  0  0  0  0  0
   19.0806   -2.4231   13.7014 H   0  0  0  0  0  0  0  0  0  0  0  0
   16.5500   -3.7512   13.1665 H   0  0  0  0  0  0  0  0  0  0  0  0
   15.3088   -0.8912   12.3811 H   0  0  0  0  0  0  0  0  0  0  0  0
   14.9125   -2.1483   11.1535 H   0  0  0  0  0  0  0  0  0  0  0  0
   14.7464    0.2115   10.2498 H   0  0  0  0  0  0  0  0  0  0  0  0
   16.4548    0.4541   10.6055 H   0  0  0  0  0  0  0  0  0  0  0  0
   15.9775   -0.7462    9.3988 H   0  0  0  0  0  0  0  0  0  0  0  0
   18.6678   -3.0038   16.9764 H   0  0  0  0  0  0  0  0  0  0  0  0
   15.4473   -1.2971   20.1705 H   0  0  0  0  0  0  0  0  0  0  0  0
   16.7996    1.0262   18.6906 H   0  0  0  0  0  0  0  0  0  0  0  0
   15.4085    1.1683   19.7886 H   0  0  0  0  0  0  0  0  0  0  0  0
   16.9811    0.5846   20.3758 H   0  0  0  0  0  0  0  0  0  0  0  0
  1  2  1  0
  2  3  1  0
  3  4  2  0
  3  5  1  0
  5  6  1  0
  6  7  1  0
  7  8  1  0
  8  9  1  0
  9 10  1  0
 10 11  1  0
 11 12  1  0
  9 13  1  0
 13 14  2  0
 14 15  1  0
 15 16  2  0
 16 17  1  0
 17 18  1  0
 18 19  1  0
 19 20  2  0
 19 21  2  0
 19 22  1  0
 22 23  1  0
 16 24  1  0
 24 25  2  0
 25 26  1  0
 26 27  1  0
 27 28  1  0
 11  6  1  0
 25 13  1  0
 27  9  1  0
  1 29  1  0
  1 30  1  0
  1 31  1  0
  2 32  1  0
  2 33  1  0
  5 34  1  0
  6 35  1  0
  7 36  1  0
  7 37  1  0
  8 38  1  0
  8 39  1  0
 10 40  1  0
 10 41  1  0
 11 42  1  0
 12 43  1  0
 14 44  1  0
 15 45  1  0
 17 46  1  0
 17 47  1  0
 18 48  1  0
 22 49  1  0
 22 50  1  0
 23 51  1  0
 23 52  1  0
 23 53  1  0
 24 54  1  0
 27 55  1  0
 28 56  1  0
 28 57  1  0
 28 58  1  0
M  END
>  <Energy>  (273) 
50.652181303696103

>  <compound_id>  (273) 
1608

>  <target_id>  (273) 
1

>  <reference_id>  (273) 
12

>  <inspiration_ids>  (273) 
[12, 124]

>  <energy_score>  (273) 
3.319760069867897

>  <distance_score>  (273) 
2.251331124898316

>  <path>  (273) 
/opt/xchem-fragalysis-2/maxwin/BulkDock/SCRATCH/505732/C1608-P12/C1608-P12.minimised.mol

>  <scratch_subdir>  (273) 
/opt/xchem-fragalysis-2/maxwin/BulkDock/SCRATCH/505732/C1608-P12

>  <fragmenstein_runtime>  (273) 
115.16112995147705

>  <fragmenstein_outcome>  (273) 
too moved

>  <fragmenstein_mode>  (273) 
expansion

>  <fragmenstein_error>  (273) 


$$$$
C1608-P124
     RDKit          3D

 58 60  0  0  0  0  0  0  0  0999 V2000
   10.5483   -2.4172   15.0170 C   0  0  0  0  0  0  0  0  0  0  0  0
   11.8115   -2.5661   14.2024 C   0  0  0  0  0  0  0  0  0  0  0  0
   12.8798   -1.8970   15.0155 C   0  0  0  0  0  0  0  0  0  0  0  0
   13.2702   -0.8240   14.7799 O   0  0  0  0  0  0  0  0  0  0  0  0
   13.2135   -2.8510   16.1891 N   0  0  0  0  0  0  0  0  0  0  0  0
   14.0110   -2.6450   17.3466 C   0  0  0  0  0  0  0  0  0  0  0  0
   15.0498   -1.5428   17.2555 C   0  0  0  0  0  0  0  0  0  0  0  0
   16.0179   -1.7172   18.4060 C   0  0  0  0  0  0  0  0  0  0  0  0
   16.5627   -3.1743   18.4597 C   0  0  0  0  0  0  0  0  0  0  0  0
   15.4937   -4.1924   18.8082 C   0  0  0  0  0  0  0  0  0  0  0  0
   14.0998   -3.7066   18.4525 C   0  0  0  0  0  0  0  0  0  0  0  0
   13.1892   -4.7714   18.2816 O   0  0  0  0  0  0  0  0  0  0  0  0
   17.1784   -3.4360   17.1256 C   0  0  0  0  0  0  0  0  0  0  0  0
   16.5476   -3.8345   15.9640 C   0  0  0  0  0  0  0  0  0  0  0  0
   17.0816   -3.3664   14.7974 C   0  0  0  0  0  0  0  0  0  0  0  0
   18.2346   -2.5666   14.8098 C   0  0  0  0  0  0  0  0  0  0  0  0
   18.5810   -1.8997   13.5208 C   0  0  0  0  0  0  0  0  0  0  0  0
   17.3957   -1.1798   13.0169 N   0  0  0  0  0  0  0  0  0  0  0  0
   17.0508   -1.4098   11.3973 S   0  0  0  0  0  0  0  0  0  0  0  0
   17.1812   -2.8140   11.0873 O   0  0  0  0  0  0  0  0  0  0  0  0
   17.8083   -0.4072   10.6805 O   0  0  0  0  0  0  0  0  0  0  0  0
   15.3350   -0.9672   11.3330 C   0  0  0  0  0  0  0  0  0  0  0  0
   14.5085   -1.9072   12.1564 C   0  0  0  0  0  0  0  0  0  0  0  0
   18.9702   -2.3707   15.9863 C   0  0  0  0  0  0  0  0  0  0  0  0
   18.4246   -2.8370   17.1482 C   0  0  0  0  0  0  0  0  0  0  0  0
   18.8931   -2.5983   18.4166 O   0  0  0  0  0  0  0  0  0  0  0  0
   17.8908   -3.2646   19.2500 C   0  0  0  0  0  0  0  0  0  0  0  0
   17.8775   -2.6027   20.6201 C   0  0  0  0  0  0  0  0  0  0  0  0
   10.1115   -1.4291   14.8656 H   0  0  0  0  0  0  0  0  0  0  0  0
    9.8050   -3.1566   14.7546 H   0  0  0  0  0  0  0  0  0  0  0  0
   10.7411   -2.5234   16.0805 H   0  0  0  0  0  0  0  0  0  0  0  0
   12.0359   -3.6067   14.0144 H   0  0  0  0  0  0  0  0  0  0  0  0
   11.7103   -2.0601   13.2462 H   0  0  0  0  0  0  0  0  0  0  0  0
   12.6287   -3.6817   16.1291 H   0  0  0  0  0  0  0  0  0  0  0  0
   13.2672   -2.0712   17.8240 H   0  0  0  0  0  0  0  0  0  0  0  0
   15.5501   -1.5182   16.2849 H   0  0  0  0  0  0  0  0  0  0  0  0
   14.6120   -0.5425   17.3388 H   0  0  0  0  0  0  0  0  0  0  0  0
   16.8171   -0.9726   18.2957 H   0  0  0  0  0  0  0  0  0  0  0  0
   15.5217   -1.4750   19.3555 H   0  0  0  0  0  0  0  0  0  0  0  0
   15.7364   -5.1628   18.3786 H   0  0  0  0  0  0  0  0  0  0  0  0
   15.5082   -4.3795   19.8914 H   0  0  0  0  0  0  0  0  0  0  0  0
   13.7872   -3.2311   19.3925 H   0  0  0  0  0  0  0  0  0  0  0  0
   12.3015   -4.4587   18.5686 H   0  0  0  0  0  0  0  0  0  0  0  0
   15.5906   -4.3379   15.9465 H   0  0  0  0  0  0  0  0  0  0  0  0
   16.5538   -3.5377   13.8655 H   0  0  0  0  0  0  0  0  0  0  0  0
   18.9513   -2.6590   12.8244 H   0  0  0  0  0  0  0  0  0  0  0  0
   19.3884   -1.1718   13.6612 H   0  0  0  0  0  0  0  0  0  0  0  0
   17.4061   -0.1949   13.2798 H   0  0  0  0  0  0  0  0  0  0  0  0
   15.0332   -0.9966   10.2823 H   0  0  0  0  0  0  0  0  0  0  0  0
   15.2456    0.0641   11.6875 H   0  0  0  0  0  0  0  0  0  0  0  0
   14.4962   -2.9090   11.7203 H   0  0  0  0  0  0  0  0  0  0  0  0
   14.8904   -1.9953   13.1737 H   0  0  0  0  0  0  0  0  0  0  0  0
   13.4952   -1.5228   12.2030 H   0  0  0  0  0  0  0  0  0  0  0  0
   19.8846   -1.7890   16.0001 H   0  0  0  0  0  0  0  0  0  0  0  0
   18.2100   -4.3114   19.3703 H   0  0  0  0  0  0  0  0  0  0  0  0
   18.8448   -2.7492   21.1134 H   0  0  0  0  0  0  0  0  0  0  0  0
   17.7369   -1.5195   20.5474 H   0  0  0  0  0  0  0  0  0  0  0  0
   17.0965   -3.0227   21.2600 H   0  0  0  0  0  0  0  0  0  0  0  0
  1  2  1  0
  2  3  1  0
  3  4  2  0
  3  5  1  0
  5  6  1  0
  6  7  1  0
  7  8  1  0
  8  9  1  0
  9 10  1  0
 10 11  1  0
 11 12  1  0
  9 13  1  0
 13 14  2  0
 14 15  1  0
 15 16  2  0
 16 17  1  0
 17 18  1  0
 18 19  1  0
 19 20  2  0
 19 21  2  0
 19 22  1  0
 22 23  1  0
 16 24  1  0
 24 25  2  0
 25 26  1  0
 26 27  1  0
 27 28  1  0
 11  6  1  0
 25 13  1  0
 27  9  1  0
  1 29  1  0
  1 30  1  0
  1 31  1  0
  2 32  1  0
  2 33  1  0
  5 34  1  0
  6 35  1  0
  7 36  1  0
  7 37  1  0
  8 38  1  0
  8 39  1  0
 10 40  1  0
 10 41  1  0
 11 42  1  0
 12 43  1  0
 14 44  1  0
 15 45  1  0
 17 46  1  0
 17 47  1  0
 18 48  1  0
 22 49  1  0
 22 50  1  0
 23 51  1  0
 23 52  1  0
 23 53  1  0
 24 54  1  0
 27 55  1  0
 28 56  1  0
 28 57  1  0
 28 58  1  0
M  END
>  <Energy>  (274) 
25.339205110109678

>  <compound_id>  (274) 
1608

>  <target_id>  (274) 
1

>  <reference_id>  (274) 
124

>  <inspiration_ids>  (274) 
[12, 124]

>  <energy_score>  (274) 
-21.99321612371898

>  <distance_score>  (274) 
3.3917436159787866

>  <path>  (274) 
/opt/xchem-fragalysis-2/maxwin/BulkDock/SCRATCH/505732/C1608-P124/C1608-P124.minimised.mol

>  <scratch_subdir>  (274) 
/opt/xchem-fragalysis-2/maxwin/BulkDock/SCRATCH/505732/C1608-P124

>  <fragmenstein_runtime>  (274) 
117.41759848594666

>  <fragmenstein_outcome>  (274) 
too moved

>  <fragmenstein_mode>  (274) 
expansion

>  <fragmenstein_error>  (274) 


$$$$
C1612-P13
     RDKit          3D

 58 61  0  0  0  0  0  0  0  0999 V2000
   -1.9046   -0.4060   32.1077 C   0  0  0  0  0  0  0  0  0  0  0  0
   -1.6837   -1.8751   32.4044 C   0  0  0  0  0  0  0  0  0  0  0  0
   -0.5540   -2.6398   31.2775 S   0  0  0  0  0  0  0  0  0  0  0  0
    0.7666   -2.1111   31.5116 O   0  0  0  0  0  0  0  0  0  0  0  0
   -0.8570   -4.1317   31.1323 N   0  0  0  0  0  0  0  0  0  0  0  0
    0.0882   -4.8758   30.2361 C   0  0  0  0  0  0  0  0  0  0  0  0
    1.1337   -5.6901   31.0049 C   0  0  0  0  0  0  0  0  0  0  0  0
    0.4397   -6.7134   31.8619 C   0  0  0  0  0  0  0  0  0  0  0  0
   -0.4353   -7.6351   31.3088 C   0  0  0  0  0  0  0  0  0  0  0  0
   -0.1165   -8.3826   29.6210 Br  0  0  0  0  0  0  0  0  0  0  0  0
   -1.4814   -8.1386   32.0579 C   0  0  0  0  0  0  0  0  0  0  0  0
   -2.4097   -8.9016   31.4601 O   0  0  0  0  0  0  0  0  0  0  0  0
   -1.5791   -7.8921   33.3948 C   0  0  0  0  0  0  0  0  0  0  0  0
   -0.5393   -7.2448   33.9915 C   0  0  0  0  0  0  0  0  0  0  0  0
    0.4647   -6.6503   33.2465 C   0  0  0  0  0  0  0  0  0  0  0  0
    1.6044   -6.0998   33.9637 C   0  0  0  0  0  0  0  0  0  0  0  0
    2.7055   -5.9662   33.4501 O   0  0  0  0  0  0  0  0  0  0  0  0
    1.3856   -5.8472   35.2630 O   0  0  0  0  0  0  0  0  0  0  0  0
    0.1116   -6.1211   35.8580 C   0  0  0  0  0  0  0  0  0  0  0  0
    0.3889   -6.4128   37.3334 C   0  0  0  0  0  0  0  0  0  0  0  0
   -0.7906   -4.9044   35.7423 C   0  0  0  0  0  0  0  0  0  0  0  0
   -0.5704   -7.2517   35.3431 O   0  0  0  0  0  0  0  0  0  0  0  0
   -0.9983   -2.1353   29.7541 N   0  0  0  0  0  0  0  0  0  0  0  0
   -0.0408   -1.8392   28.7152 C   0  0  0  0  0  0  0  0  0  0  0  0
   -0.3330   -0.4771   28.1644 C   0  0  0  0  0  0  0  0  0  0  0  0
    0.5620    0.5921   28.3843 C   0  0  0  0  0  0  0  0  0  0  0  0
    0.2687    1.8707   27.9100 C   0  0  0  0  0  0  0  0  0  0  0  0
   -0.9227    2.0455   27.2407 C   0  0  0  0  0  0  0  0  0  0  0  0
   -1.8001    1.0107   27.0304 C   0  0  0  0  0  0  0  0  0  0  0  0
   -1.5339   -0.2601   27.4722 C   0  0  0  0  0  0  0  0  0  0  0  0
   -2.9067    1.3948   26.3457 O   0  0  0  0  0  0  0  0  0  0  0  0
   -2.6766    2.8118   26.2399 C   0  0  0  0  0  0  0  0  0  0  0  0
   -1.3699    3.2133   26.7092 O   0  0  0  0  0  0  0  0  0  0  0  0
   -2.3936   -0.2652   31.1393 H   0  0  0  0  0  0  0  0  0  0  0  0
   -2.5451    0.0367   32.8764 H   0  0  0  0  0  0  0  0  0  0  0  0
   -0.9583    0.1438   32.0926 H   0  0  0  0  0  0  0  0  0  0  0  0
   -1.2748   -2.0093   33.4107 H   0  0  0  0  0  0  0  0  0  0  0  0
   -2.6354   -2.4123   32.3418 H   0  0  0  0  0  0  0  0  0  0  0  0
    0.6251   -4.2215   29.5450 H   0  0  0  0  0  0  0  0  0  0  0  0
   -0.5302   -5.5148   29.6123 H   0  0  0  0  0  0  0  0  0  0  0  0
    1.7360   -4.9885   31.5878 H   0  0  0  0  0  0  0  0  0  0  0  0
    1.8181   -6.1778   30.3044 H   0  0  0  0  0  0  0  0  0  0  0  0
   -3.1276   -9.1455   32.0789 H   0  0  0  0  0  0  0  0  0  0  0  0
   -2.3685   -8.3051   34.0071 H   0  0  0  0  0  0  0  0  0  0  0  0
   -0.5356   -6.6077   37.8859 H   0  0  0  0  0  0  0  0  0  0  0  0
    0.9242   -5.5857   37.8121 H   0  0  0  0  0  0  0  0  0  0  0  0
    1.0183   -7.3052   37.4323 H   0  0  0  0  0  0  0  0  0  0  0  0
   -0.9729   -4.6241   34.6997 H   0  0  0  0  0  0  0  0  0  0  0  0
   -0.3304   -4.0288   36.2140 H   0  0  0  0  0  0  0  0  0  0  0  0
   -1.7608   -5.0855   36.2122 H   0  0  0  0  0  0  0  0  0  0  0  0
   -1.7042   -2.7702   29.3931 H   0  0  0  0  0  0  0  0  0  0  0  0
    0.9962   -1.8839   29.0656 H   0  0  0  0  0  0  0  0  0  0  0  0
   -0.1127   -2.5857   27.9198 H   0  0  0  0  0  0  0  0  0  0  0  0
    1.4833    0.4285   28.9392 H   0  0  0  0  0  0  0  0  0  0  0  0
    0.9420    2.7039   28.0734 H   0  0  0  0  0  0  0  0  0  0  0  0
   -2.2314   -1.0683   27.2747 H   0  0  0  0  0  0  0  0  0  0  0  0
   -3.4331    3.3354   26.8293 H   0  0  0  0  0  0  0  0  0  0  0  0
   -2.7765    3.1075   25.1898 H   0  0  0  0  0  0  0  0  0  0  0  0
  1  2  1  0
  2  3  1  0
  3  4  2  0
  3  5  2  0
  5  6  1  0
  6  7  1  0
  7  8  1  0
  8  9  2  0
  9 10  1  0
  9 11  1  0
 11 12  1  0
 11 13  2  0
 13 14  1  0
 14 15  2  0
 15 16  1  0
 16 17  2  0
 16 18  1  0
 18 19  1  0
 19 20  1  0
 19 21  1  0
 19 22  1  0
  3 23  1  0
 23 24  1  0
 24 25  1  0
 25 26  2  0
 26 27  1  0
 27 28  2  0
 28 29  1  0
 29 30  2  0
 29 31  1  0
 31 32  1  0
 32 33  1  0
 15  8  1  0
 30 25  1  0
 22 14  1  0
 33 28  1  0
  1 34  1  0
  1 35  1  0
  1 36  1  0
  2 37  1  0
  2 38  1  0
  6 39  1  0
  6 40  1  0
  7 41  1  0
  7 42  1  0
 12 43  1  0
 13 44  1  0
 20 45  1  0
 20 46  1  0
 20 47  1  0
 21 48  1  0
 21 49  1  0
 21 50  1  0
 23 51  1  0
 24 52  1  0
 24 53  1  0
 26 54  1  0
 27 55  1  0
 30 56  1  0
 32 57  1  0
 32 58  1  0
M  END
>  <Energy>  (275) 
-38.011117260468836

>  <compound_id>  (275) 
1612

>  <target_id>  (275) 
1

>  <reference_id>  (275) 
13

>  <inspiration_ids>  (275) 
[13, 25]

>  <energy_score>  (275) 
-61.131131783129035

>  <distance_score>  (275) 
1.8395900544923787

>  <path>  (275) 
/opt/xchem-fragalysis-2/maxwin/BulkDock/SCRATCH/505732/C1612-P13/C1612-P13.minimised.mol

>  <scratch_subdir>  (275) 
/opt/xchem-fragalysis-2/maxwin/BulkDock/SCRATCH/505732/C1612-P13

>  <fragmenstein_runtime>  (275) 
10.574135541915894

>  <fragmenstein_outcome>  (275) 
too moved

>  <fragmenstein_mode>  (275) 
expansion

>  <fragmenstein_error>  (275) 


$$$$
C1612-P25
     RDKit          3D

 58 61  0  0  0  0  0  0  0  0999 V2000
   -1.8691   -0.8718   32.8973 C   0  0  0  0  0  0  0  0  0  0  0  0
   -1.4375   -0.7316   31.4528 C   0  0  0  0  0  0  0  0  0  0  0  0
   -0.4823   -2.1188   30.9156 S   0  0  0  0  0  0  0  0  0  0  0  0
    0.8585   -1.9716   31.4353 O   0  0  0  0  0  0  0  0  0  0  0  0
   -1.3096   -3.4041   31.0082 N   0  0  0  0  0  0  0  0  0  0  0  0
   -0.5855   -4.6157   31.4145 C   0  0  0  0  0  0  0  0  0  0  0  0
   -1.3874   -5.2232   32.5725 C   0  0  0  0  0  0  0  0  0  0  0  0
   -1.9669   -6.7627   32.3489 C   0  0  0  0  0  0  0  0  0  0  0  0
   -3.5153   -7.6300   32.0253 C   0  0  0  0  0  0  0  0  0  0  0  0
   -6.1827   -7.1232   31.9669 Br  0  0  0  0  0  0  0  0  0  0  0  0
   -3.1897   -8.7255   31.6100 C   0  0  0  0  0  0  0  0  0  0  0  0
   -4.5089   -8.9622   31.6054 O   0  0  0  0  0  0  0  0  0  0  0  0
   -1.9878   -9.2066   32.1363 C   0  0  0  0  0  0  0  0  0  0  0  0
   -1.2561   -8.5655   33.1163 C   0  0  0  0  0  0  0  0  0  0  0  0
   -0.8026   -7.4596   32.6230 C   0  0  0  0  0  0  0  0  0  0  0  0
    0.4719   -7.0172   33.2241 C   0  0  0  0  0  0  0  0  0  0  0  0
    1.2790   -6.3258   32.6305 O   0  0  0  0  0  0  0  0  0  0  0  0
    0.7123   -7.5280   34.4473 O   0  0  0  0  0  0  0  0  0  0  0  0
   -0.4504   -7.8721   35.2280 C   0  0  0  0  0  0  0  0  0  0  0  0
    0.0225   -8.8561   36.3072 C   0  0  0  0  0  0  0  0  0  0  0  0
   -0.8782   -6.5948   35.9493 C   0  0  0  0  0  0  0  0  0  0  0  0
   -1.5616   -8.4337   34.4654 O   0  0  0  0  0  0  0  0  0  0  0  0
   -0.3313   -2.0373   29.2717 N   0  0  0  0  0  0  0  0  0  0  0  0
    0.7249   -1.3226   28.6116 C   0  0  0  0  0  0  0  0  0  0  0  0
    0.2522    0.0383   28.1773 C   0  0  0  0  0  0  0  0  0  0  0  0
    0.9416    1.2076   28.5635 C   0  0  0  0  0  0  0  0  0  0  0  0
    0.5415    2.4611   28.0894 C   0  0  0  0  0  0  0  0  0  0  0  0
   -0.5338    2.5092   27.2294 C   0  0  0  0  0  0  0  0  0  0  0  0
   -1.2231    1.3786   26.8724 C   0  0  0  0  0  0  0  0  0  0  0  0
   -0.8668    0.1366   27.3351 C   0  0  0  0  0  0  0  0  0  0  0  0
   -2.2242    1.6302   25.9945 O   0  0  0  0  0  0  0  0  0  0  0  0
   -2.0438    3.0421   25.7782 C   0  0  0  0  0  0  0  0  0  0  0  0
   -1.0164    3.6200   26.6129 O   0  0  0  0  0  0  0  0  0  0  0  0
   -2.5358   -1.7300   33.0295 H   0  0  0  0  0  0  0  0  0  0  0  0
   -1.0051   -1.0172   33.5540 H   0  0  0  0  0  0  0  0  0  0  0  0
   -2.4016    0.0218   33.2326 H   0  0  0  0  0  0  0  0  0  0  0  0
   -2.3045   -0.6385   30.7985 H   0  0  0  0  0  0  0  0  0  0  0  0
   -0.8087    0.1545   31.3289 H   0  0  0  0  0  0  0  0  0  0  0  0
    0.4190   -4.3647   31.7667 H   0  0  0  0  0  0  0  0  0  0  0  0
   -0.4603   -5.2964   30.5684 H   0  0  0  0  0  0  0  0  0  0  0  0
   -1.9742   -4.4203   33.0143 H   0  0  0  0  0  0  0  0  0  0  0  0
   -0.7277   -5.2429   33.4479 H   0  0  0  0  0  0  0  0  0  0  0  0
   -5.0052   -8.3140   31.0607 H   0  0  0  0  0  0  0  0  0  0  0  0
   -1.4126   -9.7385   31.3778 H   0  0  0  0  0  0  0  0  0  0  0  0
    0.5763   -9.6978   35.8886 H   0  0  0  0  0  0  0  0  0  0  0  0
   -0.8185   -9.2733   36.8636 H   0  0  0  0  0  0  0  0  0  0  0  0
    0.7122   -8.3722   37.0085 H   0  0  0  0  0  0  0  0  0  0  0  0
   -1.4319   -6.8138   36.8584 H   0  0  0  0  0  0  0  0  0  0  0  0
   -1.5192   -5.9795   35.3275 H   0  0  0  0  0  0  0  0  0  0  0  0
   -0.0124   -5.9865   36.2351 H   0  0  0  0  0  0  0  0  0  0  0  0
   -0.5091   -2.9494   28.8697 H   0  0  0  0  0  0  0  0  0  0  0  0
    1.6286   -1.2456   29.2260 H   0  0  0  0  0  0  0  0  0  0  0  0
    1.0383   -1.8737   27.7240 H   0  0  0  0  0  0  0  0  0  0  0  0
    1.8043    1.1416   29.2231 H   0  0  0  0  0  0  0  0  0  0  0  0
    1.0677    3.3667   28.3694 H   0  0  0  0  0  0  0  0  0  0  0  0
   -1.4116   -0.7463   27.0111 H   0  0  0  0  0  0  0  0  0  0  0  0
   -2.9930    3.5434   25.9645 H   0  0  0  0  0  0  0  0  0  0  0  0
   -1.7694    3.2027   24.7286 H   0  0  0  0  0  0  0  0  0  0  0  0
  1  2  1  0
  2  3  1  0
  3  4  2  0
  3  5  2  0
  5  6  1  0
  6  7  1  0
  7  8  1  0
  8  9  2  0
  9 10  1  0
  9 11  1  0
 11 12  1  0
 11 13  2  0
 13 14  1  0
 14 15  2  0
 15 16  1  0
 16 17  2  0
 16 18  1  0
 18 19  1  0
 19 20  1  0
 19 21  1  0
 19 22  1  0
  3 23  1  0
 23 24  1  0
 24 25  1  0
 25 26  2  0
 26 27  1  0
 27 28  2  0
 28 29  1  0
 29 30  2  0
 29 31  1  0
 31 32  1  0
 32 33  1  0
 15  8  1  0
 30 25  1  0
 22 14  1  0
 33 28  1  0
  1 34  1  0
  1 35  1  0
  1 36  1  0
  2 37  1  0
  2 38  1  0
  6 39  1  0
  6 40  1  0
  7 41  1  0
  7 42  1  0
 12 43  1  0
 13 44  1  0
 20 45  1  0
 20 46  1  0
 20 47  1  0
 21 48  1  0
 21 49  1  0
 21 50  1  0
 23 51  1  0
 24 52  1  0
 24 53  1  0
 26 54  1  0
 27 55  1  0
 30 56  1  0
 32 57  1  0
 32 58  1  0
M  END
>  <Energy>  (276) 
409.60211117914099

>  <compound_id>  (276) 
1612

>  <target_id>  (276) 
1

>  <reference_id>  (276) 
25

>  <inspiration_ids>  (276) 
[13, 25]

>  <energy_score>  (276) 
376.52274865779737

>  <distance_score>  (276) 
1.4823976849739395

>  <path>  (276) 
/opt/xchem-fragalysis-2/maxwin/BulkDock/SCRATCH/505732/C1612-P25/C1612-P25.minimised.mol

>  <scratch_subdir>  (276) 
/opt/xchem-fragalysis-2/maxwin/BulkDock/SCRATCH/505732/C1612-P25

>  <fragmenstein_runtime>  (276) 
19.531845808029175

>  <fragmenstein_outcome>  (276) 
too moved

>  <fragmenstein_mode>  (276) 
expansion

>  <fragmenstein_error>  (276) 


$$$$
C1613-P13
     RDKit          3D

 44 47  0  0  0  0  0  0  0  0999 V2000
   -2.7116   -1.1260   32.1669 C   0  0  0  0  0  0  0  0  0  0  0  0
   -1.3674   -1.6628   32.6123 C   0  0  0  0  0  0  0  0  0  0  0  0
   -0.4320   -2.3958   31.2993 S   0  0  0  0  0  0  0  0  0  0  0  0
    0.9695   -2.2393   31.6052 O   0  0  0  0  0  0  0  0  0  0  0  0
   -1.0560   -3.7067   30.8349 N   0  0  0  0  0  0  0  0  0  0  0  0
   -0.2964   -4.4633   29.8107 C   0  0  0  0  0  0  0  0  0  0  0  0
   -0.1434   -5.8452   30.3319 C   0  0  0  0  0  0  0  0  0  0  0  0
   -0.8785   -6.8968   29.9235 C   0  0  0  0  0  0  0  0  0  0  0  0
   -1.0144   -8.0800   30.5868 N   0  0  0  0  0  0  0  0  0  0  0  0
   -0.4958   -8.1201   31.7769 C   0  0  0  0  0  0  0  0  0  0  0  0
    0.3820   -7.1115   32.2446 C   0  0  0  0  0  0  0  0  0  0  0  0
    1.0800   -7.0660   33.3468 N   0  0  0  0  0  0  0  0  0  0  0  0
    1.8526   -5.9331   33.2578 N   0  0  0  0  0  0  0  0  0  0  0  0
    1.5542   -5.3208   32.1319 C   0  0  0  0  0  0  0  0  0  0  0  0
    0.6024   -6.0238   31.4708 N   0  0  0  0  0  0  0  0  0  0  0  0
   -0.6412   -1.4107   29.9851 N   0  0  0  0  0  0  0  0  0  0  0  0
    0.0796   -1.5347   28.7400 C   0  0  0  0  0  0  0  0  0  0  0  0
   -0.2020   -0.2718   27.9839 C   0  0  0  0  0  0  0  0  0  0  0  0
    0.7151    0.8001   28.0206 C   0  0  0  0  0  0  0  0  0  0  0  0
    0.3640    2.0392   27.4910 C   0  0  0  0  0  0  0  0  0  0  0  0
   -0.8978    2.1680   26.9513 C   0  0  0  0  0  0  0  0  0  0  0  0
   -1.7888    1.1238   26.9072 C   0  0  0  0  0  0  0  0  0  0  0  0
   -1.4712   -0.1103   27.4068 C   0  0  0  0  0  0  0  0  0  0  0  0
   -2.9679    1.4650   26.3325 O   0  0  0  0  0  0  0  0  0  0  0  0
   -2.7606    2.8728   26.1159 C   0  0  0  0  0  0  0  0  0  0  0  0
   -1.4094    3.3001   26.4028 O   0  0  0  0  0  0  0  0  0  0  0  0
   -3.2514   -0.7053   33.0210 H   0  0  0  0  0  0  0  0  0  0  0  0
   -3.3252   -1.9255   31.7412 H   0  0  0  0  0  0  0  0  0  0  0  0
   -2.6092   -0.3386   31.4161 H   0  0  0  0  0  0  0  0  0  0  0  0
   -0.7632   -0.8485   33.0256 H   0  0  0  0  0  0  0  0  0  0  0  0
   -1.4863   -2.4229   33.3907 H   0  0  0  0  0  0  0  0  0  0  0  0
   -0.8661   -4.4304   28.8802 H   0  0  0  0  0  0  0  0  0  0  0  0
    0.6960   -4.0516   29.5961 H   0  0  0  0  0  0  0  0  0  0  0  0
   -1.5692   -6.8401   29.0940 H   0  0  0  0  0  0  0  0  0  0  0  0
   -0.7192   -8.9685   32.4236 H   0  0  0  0  0  0  0  0  0  0  0  0
    2.0034   -4.4047   31.7812 H   0  0  0  0  0  0  0  0  0  0  0  0
   -0.4880   -0.4662   30.3219 H   0  0  0  0  0  0  0  0  0  0  0  0
   -0.2630   -2.3857   28.1472 H   0  0  0  0  0  0  0  0  0  0  0  0
    1.1573   -1.6491   28.9009 H   0  0  0  0  0  0  0  0  0  0  0  0
    1.6872    0.6795   28.4927 H   0  0  0  0  0  0  0  0  0  0  0  0
    1.0432    2.8835   27.5188 H   0  0  0  0  0  0  0  0  0  0  0  0
   -2.1911   -0.9229   27.3736 H   0  0  0  0  0  0  0  0  0  0  0  0
   -2.9887    3.1099   25.0713 H   0  0  0  0  0  0  0  0  0  0  0  0
   -3.4404    3.4280   26.7654 H   0  0  0  0  0  0  0  0  0  0  0  0
  1  2  1  0
  2  3  1  0
  3  4  2  0
  3  5  2  0
  5  6  1  0
  6  7  1  0
  7  8  2  0
  8  9  1  0
  9 10  2  0
 10 11  1  0
 11 12  2  0
 12 13  1  0
 13 14  2  0
 14 15  1  0
  3 16  1  0
 16 17  1  0
 17 18  1  0
 18 19  2  0
 19 20  1  0
 20 21  2  0
 21 22  1  0
 22 23  2  0
 22 24  1  0
 24 25  1  0
 25 26  1  0
 15  7  1  0
 23 18  1  0
 15 11  1  0
 26 21  1  0
  1 27  1  0
  1 28  1  0
  1 29  1  0
  2 30  1  0
  2 31  1  0
  6 32  1  0
  6 33  1  0
  8 34  1  0
 10 35  1  0
 14 36  1  0
 16 37  1  0
 17 38  1  0
 17 39  1  0
 19 40  1  0
 20 41  1  0
 23 42  1  0
 25 43  1  0
 25 44  1  0
M  END
>  <Energy>  (277) 
-81.290025744770659

>  <compound_id>  (277) 
1613

>  <target_id>  (277) 
1

>  <reference_id>  (277) 
13

>  <inspiration_ids>  (277) 
[13, 40]

>  <energy_score>  (277) 
-40.14968555275112

>  <distance_score>  (277) 
2.3181882054058236

>  <path>  (277) 
/opt/xchem-fragalysis-2/maxwin/BulkDock/SCRATCH/505732/C1613-P13/C1613-P13.minimised.mol

>  <scratch_subdir>  (277) 
/opt/xchem-fragalysis-2/maxwin/BulkDock/SCRATCH/505732/C1613-P13

>  <fragmenstein_runtime>  (277) 
4.748668670654297

>  <fragmenstein_outcome>  (277) 
too moved

>  <fragmenstein_mode>  (277) 
expansion

>  <fragmenstein_error>  (277) 


$$$$
C1613-P40
     RDKit          3D

 44 47  0  0  0  0  0  0  0  0999 V2000
   -2.5291   -0.9891   32.3723 C   0  0  0  0  0  0  0  0  0  0  0  0
   -1.4304   -0.6503   31.3950 C   0  0  0  0  0  0  0  0  0  0  0  0
   -0.4811   -2.0790   30.9599 S   0  0  0  0  0  0  0  0  0  0  0  0
    0.2168   -2.5344   32.1409 O   0  0  0  0  0  0  0  0  0  0  0  0
   -1.3104   -3.0260   30.0968 N   0  0  0  0  0  0  0  0  0  0  0  0
   -0.8014   -3.7190   28.9086 C   0  0  0  0  0  0  0  0  0  0  0  0
    0.4583   -4.4795   29.1241 C   0  0  0  0  0  0  0  0  0  0  0  0
    1.5220   -4.3804   28.3016 C   0  0  0  0  0  0  0  0  0  0  0  0
    2.7829   -4.8282   28.5968 N   0  0  0  0  0  0  0  0  0  0  0  0
    2.9668   -5.2840   29.8054 C   0  0  0  0  0  0  0  0  0  0  0  0
    1.8732   -5.4816   30.7125 C   0  0  0  0  0  0  0  0  0  0  0  0
    1.8424   -5.9695   31.9303 N   0  0  0  0  0  0  0  0  0  0  0  0
    0.5267   -6.1236   32.2765 N   0  0  0  0  0  0  0  0  0  0  0  0
   -0.1923   -5.6056   31.3089 C   0  0  0  0  0  0  0  0  0  0  0  0
    0.6210   -5.1714   30.3052 N   0  0  0  0  0  0  0  0  0  0  0  0
    0.8128   -1.5680   30.0677 N   0  0  0  0  0  0  0  0  0  0  0  0
    0.9450   -1.1054   28.7192 C   0  0  0  0  0  0  0  0  0  0  0  0
    0.1225    0.0892   28.3629 C   0  0  0  0  0  0  0  0  0  0  0  0
    0.6156    1.3728   28.6759 C   0  0  0  0  0  0  0  0  0  0  0  0
   -0.0422    2.5142   28.2263 C   0  0  0  0  0  0  0  0  0  0  0  0
   -1.1836    2.3407   27.4780 C   0  0  0  0  0  0  0  0  0  0  0  0
   -1.6889    1.0971   27.1984 C   0  0  0  0  0  0  0  0  0  0  0  0
   -1.0735   -0.0485   27.6417 C   0  0  0  0  0  0  0  0  0  0  0  0
   -2.7969    1.1528   26.4186 O   0  0  0  0  0  0  0  0  0  0  0  0
   -2.9686    2.5773   26.2852 C   0  0  0  0  0  0  0  0  0  0  0  0
   -1.9205    3.3362   26.9230 O   0  0  0  0  0  0  0  0  0  0  0  0
   -3.0520   -0.0887   32.6989 H   0  0  0  0  0  0  0  0  0  0  0  0
   -2.1274   -1.4793   33.2654 H   0  0  0  0  0  0  0  0  0  0  0  0
   -3.2612   -1.6693   31.9257 H   0  0  0  0  0  0  0  0  0  0  0  0
   -1.8592   -0.2277   30.4838 H   0  0  0  0  0  0  0  0  0  0  0  0
   -0.7437    0.0797   31.8343 H   0  0  0  0  0  0  0  0  0  0  0  0
   -1.4913   -4.4815   28.6248 H   0  0  0  0  0  0  0  0  0  0  0  0
   -0.7683   -3.0459   28.0568 H   0  0  0  0  0  0  0  0  0  0  0  0
    1.4754   -3.7966   27.3973 H   0  0  0  0  0  0  0  0  0  0  0  0
    3.9923   -5.5513   30.0870 H   0  0  0  0  0  0  0  0  0  0  0  0
   -1.2613   -5.4974   31.3233 H   0  0  0  0  0  0  0  0  0  0  0  0
    1.6272   -2.0790   30.3829 H   0  0  0  0  0  0  0  0  0  0  0  0
    0.8004   -1.8639   27.9590 H   0  0  0  0  0  0  0  0  0  0  0  0
    1.9982   -0.8246   28.5763 H   0  0  0  0  0  0  0  0  0  0  0  0
    1.5385    1.4853   29.2417 H   0  0  0  0  0  0  0  0  0  0  0  0
    0.3319    3.5093   28.4409 H   0  0  0  0  0  0  0  0  0  0  0  0
   -1.4880   -1.0123   27.3688 H   0  0  0  0  0  0  0  0  0  0  0  0
   -2.9801    2.8328   25.2201 H   0  0  0  0  0  0  0  0  0  0  0  0
   -3.9315    2.8524   26.7225 H   0  0  0  0  0  0  0  0  0  0  0  0
  1  2  1  0
  2  3  1  0
  3  4  2  0
  3  5  2  0
  5  6  1  0
  6  7  1  0
  7  8  2  0
  8  9  1  0
  9 10  2  0
 10 11  1  0
 11 12  2  0
 12 13  1  0
 13 14  2  0
 14 15  1  0
  3 16  1  0
 16 17  1  0
 17 18  1  0
 18 19  2  0
 19 20  1  0
 20 21  2  0
 21 22  1  0
 22 23  2  0
 22 24  1  0
 24 25  1  0
 25 26  1  0
 15  7  1  0
 23 18  1  0
 15 11  1  0
 26 21  1  0
  1 27  1  0
  1 28  1  0
  1 29  1  0
  2 30  1  0
  2 31  1  0
  6 32  1  0
  6 33  1  0
  8 34  1  0
 10 35  1  0
 14 36  1  0
 16 37  1  0
 17 38  1  0
 17 39  1  0
 19 40  1  0
 20 41  1  0
 23 42  1  0
 25 43  1  0
 25 44  1  0
M  END
>  <Energy>  (278) 
-69.425999659372621

>  <compound_id>  (278) 
1613

>  <target_id>  (278) 
1

>  <reference_id>  (278) 
40

>  <inspiration_ids>  (278) 
[13, 40]

>  <energy_score>  (278) 
-28.28565946735023

>  <distance_score>  (278) 
1.59707115741057

>  <path>  (278) 
/opt/xchem-fragalysis-2/maxwin/BulkDock/SCRATCH/505732/C1613-P40/C1613-P40.minimised.mol

>  <scratch_subdir>  (278) 
/opt/xchem-fragalysis-2/maxwin/BulkDock/SCRATCH/505732/C1613-P40

>  <fragmenstein_runtime>  (278) 
3.725162982940674

>  <fragmenstein_outcome>  (278) 
too moved

>  <fragmenstein_mode>  (278) 
expansion

>  <fragmenstein_error>  (278) 


$$$$
C1614-P13
     RDKit          3D

 60 63  0  0  0  0  0  0  0  0999 V2000
    0.3450   -2.8912   31.4175 O   0  0  0  0  0  0  0  0  0  0  0  0
   -1.0340   -2.7343   31.0214 S   0  0  0  0  0  0  0  0  0  0  0  0
   -2.0571   -3.6947   31.3828 O   0  0  0  0  0  0  0  0  0  0  0  0
   -1.5767   -1.1676   31.6432 C   0  0  0  0  0  0  0  0  0  0  0  0
   -1.2848   -1.1269   33.1386 C   0  0  0  0  0  0  0  0  0  0  0  0
   -1.9640   -2.1426   33.9529 N   0  0  0  0  0  0  0  0  0  0  0  0
   -1.1173   -2.8374   34.9389 C   0  0  0  0  0  0  0  0  0  0  0  0
   -0.2279   -4.0546   34.5011 C   0  0  0  0  0  0  0  0  0  0  0  0
   -0.9965   -5.3315   34.1096 C   0  0  0  0  0  0  0  0  0  0  0  0
   -0.1905   -6.5094   33.8464 N   0  0  0  0  0  0  0  0  0  0  0  0
   -0.1433   -7.0498   32.5027 C   0  0  0  0  0  0  0  0  0  0  0  0
    0.7737   -6.2668   31.6031 C   0  0  0  0  0  0  0  0  0  0  0  0
    0.4099   -5.8133   30.2998 C   0  0  0  0  0  0  0  0  0  0  0  0
    1.4121   -5.1219   29.6540 C   0  0  0  0  0  0  0  0  0  0  0  0
    2.8062   -4.9726   30.6092 S   0  0  0  0  0  0  0  0  0  0  0  0
    2.0791   -5.8877   31.8584 C   0  0  0  0  0  0  0  0  0  0  0  0
    0.8579   -6.7765   34.8075 C   0  0  0  0  0  0  0  0  0  0  0  0
    1.6374   -5.5521   35.2807 C   0  0  0  0  0  0  0  0  0  0  0  0
    0.7322   -4.3953   35.6519 C   0  0  0  0  0  0  0  0  0  0  0  0
    0.0442   -4.7463   36.8541 O   0  0  0  0  0  0  0  0  0  0  0  0
   -1.0842   -2.6070   29.3867 N   0  0  0  0  0  0  0  0  0  0  0  0
    0.0067   -1.9727   28.6681 C   0  0  0  0  0  0  0  0  0  0  0  0
   -0.3358   -0.5819   28.2234 C   0  0  0  0  0  0  0  0  0  0  0  0
    0.5691    0.4798   28.4486 C   0  0  0  0  0  0  0  0  0  0  0  0
    0.2785    1.7715   28.0053 C   0  0  0  0  0  0  0  0  0  0  0  0
   -0.9134    1.9675   27.3441 C   0  0  0  0  0  0  0  0  0  0  0  0
   -1.7964    0.9416   27.1197 C   0  0  0  0  0  0  0  0  0  0  0  0
   -1.5377   -0.3400   27.5411 C   0  0  0  0  0  0  0  0  0  0  0  0
   -2.8955    1.3415   26.4315 O   0  0  0  0  0  0  0  0  0  0  0  0
   -2.6490    2.7568   26.3253 C   0  0  0  0  0  0  0  0  0  0  0  0
   -1.3492    3.1447   26.8251 O   0  0  0  0  0  0  0  0  0  0  0  0
   -2.6426   -1.0547   31.4277 H   0  0  0  0  0  0  0  0  0  0  0  0
   -1.0130   -0.3799   31.1374 H   0  0  0  0  0  0  0  0  0  0  0  0
   -1.5918   -0.1458   33.5191 H   0  0  0  0  0  0  0  0  0  0  0  0
   -0.1991   -1.1797   33.2892 H   0  0  0  0  0  0  0  0  0  0  0  0
   -2.4779   -2.8494   33.4156 H   0  0  0  0  0  0  0  0  0  0  0  0
   -0.4843   -2.0870   35.4309 H   0  0  0  0  0  0  0  0  0  0  0  0
   -1.7989   -3.1873   35.7237 H   0  0  0  0  0  0  0  0  0  0  0  0
    0.3892   -3.7402   33.6564 H   0  0  0  0  0  0  0  0  0  0  0  0
   -1.6529   -5.6041   34.9419 H   0  0  0  0  0  0  0  0  0  0  0  0
   -1.6205   -5.1250   33.2469 H   0  0  0  0  0  0  0  0  0  0  0  0
   -1.1547   -7.0729   32.0770 H   0  0  0  0  0  0  0  0  0  0  0  0
    0.1743   -8.0931   32.5295 H   0  0  0  0  0  0  0  0  0  0  0  0
   -0.5678   -5.9658   29.8692 H   0  0  0  0  0  0  0  0  0  0  0  0
    1.3767   -4.6546   28.6826 H   0  0  0  0  0  0  0  0  0  0  0  0
    2.6726   -6.1072   32.7277 H   0  0  0  0  0  0  0  0  0  0  0  0
    1.5627   -7.5271   34.4333 H   0  0  0  0  0  0  0  0  0  0  0  0
    0.3889   -7.2445   35.6830 H   0  0  0  0  0  0  0  0  0  0  0  0
    2.3419   -5.2092   34.5214 H   0  0  0  0  0  0  0  0  0  0  0  0
    2.2383   -5.8464   36.1505 H   0  0  0  0  0  0  0  0  0  0  0  0
    1.3605   -3.5271   35.8862 H   0  0  0  0  0  0  0  0  0  0  0  0
   -0.3385   -3.9394   37.2377 H   0  0  0  0  0  0  0  0  0  0  0  0
   -1.8723   -2.9818   28.8480 H   0  0  0  0  0  0  0  0  0  0  0  0
    0.9227   -1.9532   29.2670 H   0  0  0  0  0  0  0  0  0  0  0  0
    0.2461   -2.5842   27.7980 H   0  0  0  0  0  0  0  0  0  0  0  0
    1.5093    0.3002   28.9664 H   0  0  0  0  0  0  0  0  0  0  0  0
    0.9633    2.5956   28.1699 H   0  0  0  0  0  0  0  0  0  0  0  0
   -2.2353   -1.1381   27.3071 H   0  0  0  0  0  0  0  0  0  0  0  0
   -2.7186    3.0475   25.2713 H   0  0  0  0  0  0  0  0  0  0  0  0
   -3.4145    3.2924   26.8919 H   0  0  0  0  0  0  0  0  0  0  0  0
  1  2  2  0
  2  3  2  0
  2  4  1  0
  4  5  1  0
  5  6  1  0
  6  7  1  0
  7  8  1  0
  8  9  1  0
  9 10  1  0
 10 11  1  0
 11 12  1  0
 12 13  1  0
 13 14  2  0
 14 15  1  0
 15 16  1  0
 10 17  1  0
 17 18  1  0
 18 19  1  0
 19 20  1  0
  2 21  1  0
 21 22  1  0
 22 23  1  0
 23 24  2  0
 24 25  1  0
 25 26  2  0
 26 27  1  0
 27 28  2  0
 27 29  1  0
 29 30  1  0
 30 31  1  0
 19  8  1  0
 28 23  1  0
 16 12  2  0
 31 26  1  0
  4 32  1  0
  4 33  1  0
  5 34  1  0
  5 35  1  0
  6 36  1  0
  7 37  1  0
  7 38  1  0
  8 39  1  0
  9 40  1  0
  9 41  1  0
 11 42  1  0
 11 43  1  0
 13 44  1  0
 14 45  1  0
 16 46  1  0
 17 47  1  0
 17 48  1  0
 18 49  1  0
 18 50  1  0
 19 51  1  0
 20 52  1  0
 21 53  1  0
 22 54  1  0
 22 55  1  0
 24 56  1  0
 25 57  1  0
 28 58  1  0
 30 59  1  0
 30 60  1  0
M  END
>  <Energy>  (279) 
-12.700354440568516

>  <compound_id>  (279) 
1614

>  <target_id>  (279) 
1

>  <reference_id>  (279) 
13

>  <inspiration_ids>  (279) 
[13, 41]

>  <energy_score>  (279) 
-85.10432809605618

>  <distance_score>  (279) 
1.594516727782484

>  <path>  (279) 
/opt/xchem-fragalysis-2/maxwin/BulkDock/SCRATCH/505732/C1614-P13/C1614-P13.minimised.mol

>  <scratch_subdir>  (279) 
/opt/xchem-fragalysis-2/maxwin/BulkDock/SCRATCH/505732/C1614-P13

>  <fragmenstein_runtime>  (279) 
5.8116679191589355

>  <fragmenstein_outcome>  (279) 
too moved

>  <fragmenstein_mode>  (279) 
expansion

>  <fragmenstein_error>  (279) 


$$$$
C1614-P41
     RDKit          3D

 60 63  0  0  0  0  0  0  0  0999 V2000
   -1.7668   -3.8712   31.3913 O   0  0  0  0  0  0  0  0  0  0  0  0
   -0.9312   -2.7575   31.0087 S   0  0  0  0  0  0  0  0  0  0  0  0
    0.4612   -2.7136   31.3676 O   0  0  0  0  0  0  0  0  0  0  0  0
   -1.6907   -1.2889   31.6402 C   0  0  0  0  0  0  0  0  0  0  0  0
   -1.3234   -1.1304   33.1088 C   0  0  0  0  0  0  0  0  0  0  0  0
   -1.7952   -2.1773   34.0222 N   0  0  0  0  0  0  0  0  0  0  0  0
   -0.7699   -2.7905   34.8903 C   0  0  0  0  0  0  0  0  0  0  0  0
   -0.0261   -4.0859   34.4068 C   0  0  0  0  0  0  0  0  0  0  0  0
   -0.9608   -5.2894   34.1961 C   0  0  0  0  0  0  0  0  0  0  0  0
   -0.3505   -6.5924   33.9948 N   0  0  0  0  0  0  0  0  0  0  0  0
   -0.2716   -7.0904   32.6310 C   0  0  0  0  0  0  0  0  0  0  0  0
    0.6993   -6.3322   31.7580 C   0  0  0  0  0  0  0  0  0  0  0  0
    1.9862   -5.7889   32.1032 C   0  0  0  0  0  0  0  0  0  0  0  0
    2.6117   -5.1312   31.0672 C   0  0  0  0  0  0  0  0  0  0  0  0
    1.7211   -5.2487   29.6284 S   0  0  0  0  0  0  0  0  0  0  0  0
    0.4429   -6.0545   30.4301 C   0  0  0  0  0  0  0  0  0  0  0  0
    0.6920   -6.9362   34.9381 C   0  0  0  0  0  0  0  0  0  0  0  0
    0.9373   -5.8590   35.9866 C   0  0  0  0  0  0  0  0  0  0  0  0
    1.1310   -4.4864   35.3532 C   0  0  0  0  0  0  0  0  0  0  0  0
    1.3351   -3.5346   36.3988 O   0  0  0  0  0  0  0  0  0  0  0  0
   -1.0539   -2.6344   29.3764 N   0  0  0  0  0  0  0  0  0  0  0  0
    0.0214   -2.0230   28.6122 C   0  0  0  0  0  0  0  0  0  0  0  0
   -0.3245   -0.6309   28.1762 C   0  0  0  0  0  0  0  0  0  0  0  0
    0.5446    0.4448   28.4659 C   0  0  0  0  0  0  0  0  0  0  0  0
    0.2436    1.7398   28.0395 C   0  0  0  0  0  0  0  0  0  0  0  0
   -0.9239    1.9249   27.3335 C   0  0  0  0  0  0  0  0  0  0  0  0
   -1.7726    0.8846   27.0485 C   0  0  0  0  0  0  0  0  0  0  0  0
   -1.5035   -0.4004   27.4522 C   0  0  0  0  0  0  0  0  0  0  0  0
   -2.8523    1.2765   26.3259 O   0  0  0  0  0  0  0  0  0  0  0  0
   -2.6352    2.6994   26.2654 C   0  0  0  0  0  0  0  0  0  0  0  0
   -1.3676    3.1050   26.8277 O   0  0  0  0  0  0  0  0  0  0  0  0
   -2.7714   -1.3643   31.4927 H   0  0  0  0  0  0  0  0  0  0  0  0
   -1.3057   -0.4365   31.0739 H   0  0  0  0  0  0  0  0  0  0  0  0
   -0.2371   -1.0025   33.1931 H   0  0  0  0  0  0  0  0  0  0  0  0
   -1.7581   -0.1865   33.4589 H   0  0  0  0  0  0  0  0  0  0  0  0
   -2.3919   -2.8998   33.6094 H   0  0  0  0  0  0  0  0  0  0  0  0
   -0.0386   -2.0163   35.1520 H   0  0  0  0  0  0  0  0  0  0  0  0
   -1.2794   -3.0402   35.8300 H   0  0  0  0  0  0  0  0  0  0  0  0
    0.4392   -3.8467   33.4512 H   0  0  0  0  0  0  0  0  0  0  0  0
   -1.6228   -5.0853   33.3660 H   0  0  0  0  0  0  0  0  0  0  0  0
   -1.5861   -5.3846   35.0911 H   0  0  0  0  0  0  0  0  0  0  0  0
   -1.2720   -7.0574   32.1804 H   0  0  0  0  0  0  0  0  0  0  0  0
   -0.0073   -8.1474   32.6431 H   0  0  0  0  0  0  0  0  0  0  0  0
    2.4491   -5.8409   33.0747 H   0  0  0  0  0  0  0  0  0  0  0  0
    3.5581   -4.6088   31.0906 H   0  0  0  0  0  0  0  0  0  0  0  0
   -0.4639   -6.2936   29.8977 H   0  0  0  0  0  0  0  0  0  0  0  0
    0.3978   -7.8583   35.4542 H   0  0  0  0  0  0  0  0  0  0  0  0
    1.6385   -7.1761   34.4482 H   0  0  0  0  0  0  0  0  0  0  0  0
    0.1073   -5.8244   36.7055 H   0  0  0  0  0  0  0  0  0  0  0  0
    1.8194   -6.1219   36.5841 H   0  0  0  0  0  0  0  0  0  0  0  0
    2.0626   -4.4891   34.7776 H   0  0  0  0  0  0  0  0  0  0  0  0
    2.0894   -3.8322   36.9355 H   0  0  0  0  0  0  0  0  0  0  0  0
   -1.7842   -3.1286   28.8546 H   0  0  0  0  0  0  0  0  0  0  0  0
    0.9657   -2.0141   29.1645 H   0  0  0  0  0  0  0  0  0  0  0  0
    0.2150   -2.6454   27.7394 H   0  0  0  0  0  0  0  0  0  0  0  0
    1.4642    0.2733   29.0219 H   0  0  0  0  0  0  0  0  0  0  0  0
    0.9015    2.5746   28.2527 H   0  0  0  0  0  0  0  0  0  0  0  0
   -2.1745   -1.2094   27.1799 H   0  0  0  0  0  0  0  0  0  0  0  0
   -2.6694    3.0157   25.2170 H   0  0  0  0  0  0  0  0  0  0  0  0
   -3.4373    3.1998   26.8121 H   0  0  0  0  0  0  0  0  0  0  0  0
  1  2  2  0
  2  3  2  0
  2  4  1  0
  4  5  1  0
  5  6  1  0
  6  7  1  0
  7  8  1  0
  8  9  1  0
  9 10  1  0
 10 11  1  0
 11 12  1  0
 12 13  1  0
 13 14  2  0
 14 15  1  0
 15 16  1  0
 10 17  1  0
 17 18  1  0
 18 19  1  0
 19 20  1  0
  2 21  1  0
 21 22  1  0
 22 23  1  0
 23 24  2  0
 24 25  1  0
 25 26  2  0
 26 27  1  0
 27 28  2  0
 27 29  1  0
 29 30  1  0
 30 31  1  0
 19  8  1  0
 28 23  1  0
 16 12  2  0
 31 26  1  0
  4 32  1  0
  4 33  1  0
  5 34  1  0
  5 35  1  0
  6 36  1  0
  7 37  1  0
  7 38  1  0
  8 39  1  0
  9 40  1  0
  9 41  1  0
 11 42  1  0
 11 43  1  0
 13 44  1  0
 14 45  1  0
 16 46  1  0
 17 47  1  0
 17 48  1  0
 18 49  1  0
 18 50  1  0
 19 51  1  0
 20 52  1  0
 21 53  1  0
 22 54  1  0
 22 55  1  0
 24 56  1  0
 25 57  1  0
 28 58  1  0
 30 59  1  0
 30 60  1  0
M  END
>  <Energy>  (280) 
-11.182460669036821

>  <compound_id>  (280) 
1614

>  <target_id>  (280) 
1

>  <reference_id>  (280) 
41

>  <inspiration_ids>  (280) 
[13, 41]

>  <energy_score>  (280) 
-83.58643432452186

>  <distance_score>  (280) 
1.6599275925180916

>  <path>  (280) 
/opt/xchem-fragalysis-2/maxwin/BulkDock/SCRATCH/505732/C1614-P41/C1614-P41.minimised.mol

>  <scratch_subdir>  (280) 
/opt/xchem-fragalysis-2/maxwin/BulkDock/SCRATCH/505732/C1614-P41

>  <fragmenstein_runtime>  (280) 
4.433371543884277

>  <fragmenstein_outcome>  (280) 
too moved

>  <fragmenstein_mode>  (280) 
expansion

>  <fragmenstein_error>  (280) 


$$$$
C1616-P13
     RDKit          3D

 62 66  0  0  0  0  0  0  0  0999 V2000
   -1.8225   -0.6923   31.8267 C   0  0  0  0  0  0  0  0  0  0  0  0
   -0.4773   -0.0553   31.5363 C   0  0  0  0  0  0  0  0  0  0  0  0
    0.7459   -1.2119   30.9603 S   0  0  0  0  0  0  0  0  0  0  0  0
    0.9716   -2.1816   32.0145 O   0  0  0  0  0  0  0  0  0  0  0  0
    1.8639   -0.4334   30.2003 N   0  0  0  0  0  0  0  0  0  0  0  0
    2.9517    0.3637   30.8538 C   0  0  0  0  0  0  0  0  0  0  0  0
    3.5124   -0.1885   32.0230 C   0  0  0  0  0  0  0  0  0  0  0  0
    4.5544    0.4295   32.7197 C   0  0  0  0  0  0  0  0  0  0  0  0
    5.0921    1.6133   32.2477 C   0  0  0  0  0  0  0  0  0  0  0  0
    6.1438    2.2747   32.9377 N   0  0  0  0  0  0  0  0  0  0  0  0
    5.8919    2.8600   34.4977 S   0  0  0  0  0  0  0  0  0  0  0  0
    4.6578    4.1175   34.2305 C   0  0  0  0  0  0  0  0  0  0  0  0
    5.3199    1.8232   35.3267 O   0  0  0  0  0  0  0  0  0  0  0  0
    7.1197    3.5312   34.8669 O   0  0  0  0  0  0  0  0  0  0  0  0
    4.6052    2.1633   31.0636 C   0  0  0  0  0  0  0  0  0  0  0  0
    3.5472    1.5633   30.3252 C   0  0  0  0  0  0  0  0  0  0  0  0
    3.2488    2.3695   29.0808 C   0  0  0  0  0  0  0  0  0  0  0  0
    4.1852    2.5190   27.9422 C   0  0  0  0  0  0  0  0  0  0  0  0
    4.0100    3.4133   26.9476 C   0  0  0  0  0  0  0  0  0  0  0  0
    2.8692    4.2417   26.9556 C   0  0  0  0  0  0  0  0  0  0  0  0
    2.4100    5.1425   26.1170 N   0  0  0  0  0  0  0  0  0  0  0  0
    1.2042    5.5805   26.6014 N   0  0  0  0  0  0  0  0  0  0  0  0
    0.9537    4.9362   27.7149 C   0  0  0  0  0  0  0  0  0  0  0  0
   -0.1600    5.0110   28.4546 N   0  0  0  0  0  0  0  0  0  0  0  0
    1.9985    4.0941   28.0179 N   0  0  0  0  0  0  0  0  0  0  0  0
    2.1943    3.2094   29.0823 C   0  0  0  0  0  0  0  0  0  0  0  0
   -0.0351   -2.2081   29.8504 N   0  0  0  0  0  0  0  0  0  0  0  0
    0.0647   -2.0729   28.4197 C   0  0  0  0  0  0  0  0  0  0  0  0
   -0.3559   -0.7209   27.9144 C   0  0  0  0  0  0  0  0  0  0  0  0
    0.6379    0.2183   27.5797 C   0  0  0  0  0  0  0  0  0  0  0  0
    0.3040    1.4617   27.0632 C   0  0  0  0  0  0  0  0  0  0  0  0
   -1.0187    1.7574   26.8899 C   0  0  0  0  0  0  0  0  0  0  0  0
   -1.9962    0.8480   27.1858 C   0  0  0  0  0  0  0  0  0  0  0  0
   -1.7031   -0.3956   27.7110 C   0  0  0  0  0  0  0  0  0  0  0  0
   -3.2218    1.3135   26.8358 O   0  0  0  0  0  0  0  0  0  0  0  0
   -2.9091    2.6305   26.3524 C   0  0  0  0  0  0  0  0  0  0  0  0
   -1.4960    2.9012   26.3409 O   0  0  0  0  0  0  0  0  0  0  0  0
   -2.3093   -1.0326   30.9080 H   0  0  0  0  0  0  0  0  0  0  0  0
   -1.7193   -1.5547   32.4929 H   0  0  0  0  0  0  0  0  0  0  0  0
   -2.4866    0.0262   32.3130 H   0  0  0  0  0  0  0  0  0  0  0  0
   -0.5847    0.7238   30.7762 H   0  0  0  0  0  0  0  0  0  0  0  0
   -0.0721    0.4021   32.4446 H   0  0  0  0  0  0  0  0  0  0  0  0
    3.1574   -1.1387   32.4149 H   0  0  0  0  0  0  0  0  0  0  0  0
    4.9468   -0.0445   33.6173 H   0  0  0  0  0  0  0  0  0  0  0  0
    6.7804    2.8617   32.3984 H   0  0  0  0  0  0  0  0  0  0  0  0
    4.4895    4.6271   35.1820 H   0  0  0  0  0  0  0  0  0  0  0  0
    5.0306    4.8296   33.4919 H   0  0  0  0  0  0  0  0  0  0  0  0
    3.7304    3.6497   33.8963 H   0  0  0  0  0  0  0  0  0  0  0  0
    5.0539    3.0864   30.6968 H   0  0  0  0  0  0  0  0  0  0  0  0
    5.0543    1.8651   27.9348 H   0  0  0  0  0  0  0  0  0  0  0  0
    4.7143    3.4989   26.1283 H   0  0  0  0  0  0  0  0  0  0  0  0
   -0.9364    5.4882   28.0012 H   0  0  0  0  0  0  0  0  0  0  0  0
   -0.5111    4.2006   28.9534 H   0  0  0  0  0  0  0  0  0  0  0  0
    1.4598    3.2425   29.8772 H   0  0  0  0  0  0  0  0  0  0  0  0
    0.2615   -3.1422   30.1057 H   0  0  0  0  0  0  0  0  0  0  0  0
    1.0841   -2.3065   28.0900 H   0  0  0  0  0  0  0  0  0  0  0  0
   -0.5777   -2.8334   27.9652 H   0  0  0  0  0  0  0  0  0  0  0  0
    1.6889   -0.0473   27.6703 H   0  0  0  0  0  0  0  0  0  0  0  0
    1.0640    2.1315   26.6974 H   0  0  0  0  0  0  0  0  0  0  0  0
   -2.4863   -1.1231   27.8926 H   0  0  0  0  0  0  0  0  0  0  0  0
   -3.3895    3.3678   26.9992 H   0  0  0  0  0  0  0  0  0  0  0  0
   -3.3000    2.7430   25.3361 H   0  0  0  0  0  0  0  0  0  0  0  0
  1  2  1  0
  2  3  1  0
  3  4  2  0
  3  5  2  0
  5  6  1  0
  6  7  2  0
  7  8  1  0
  8  9  2  0
  9 10  1  0
 10 11  1  0
 11 12  1  0
 11 13  2  0
 11 14  2  0
  9 15  1  0
 15 16  2  0
 16 17  1  0
 17 18  1  0
 18 19  2  0
 19 20  1  0
 20 21  2  0
 21 22  1  0
 22 23  2  0
 23 24  1  0
 23 25  1  0
 25 26  1  0
  3 27  1  0
 27 28  1  0
 28 29  1  0
 29 30  2  0
 30 31  1  0
 31 32  2  0
 32 33  1  0
 33 34  2  0
 33 35  1  0
 35 36  1  0
 36 37  1  0
 16  6  1  0
 26 17  2  0
 34 29  1  0
 25 20  1  0
 37 32  1  0
  1 38  1  0
  1 39  1  0
  1 40  1  0
  2 41  1  0
  2 42  1  0
  7 43  1  0
  8 44  1  0
 10 45  1  0
 12 46  1  0
 12 47  1  0
 12 48  1  0
 15 49  1  0
 18 50  1  0
 19 51  1  0
 24 52  1  0
 24 53  1  0
 26 54  1  0
 27 55  1  0
 28 56  1  0
 28 57  1  0
 30 58  1  0
 31 59  1  0
 34 60  1  0
 36 61  1  0
 36 62  1  0
M  END
>  <Energy>  (281) 
-74.917329197983207

>  <compound_id>  (281) 
1616

>  <target_id>  (281) 
1

>  <reference_id>  (281) 
13

>  <inspiration_ids>  (281) 
[13, 53]

>  <energy_score>  (281) 
-99.5031117262247

>  <distance_score>  (281) 
2.1076224331090465

>  <path>  (281) 
/opt/xchem-fragalysis-2/maxwin/BulkDock/SCRATCH/505732/C1616-P13/C1616-P13.minimised.mol

>  <scratch_subdir>  (281) 
/opt/xchem-fragalysis-2/maxwin/BulkDock/SCRATCH/505732/C1616-P13

>  <fragmenstein_runtime>  (281) 
4.813337326049805

>  <fragmenstein_outcome>  (281) 
too moved

>  <fragmenstein_mode>  (281) 
expansion

>  <fragmenstein_error>  (281) 


$$$$
C1616-P53
     RDKit          3D

 62 66  0  0  0  0  0  0  0  0999 V2000
   -0.4265    0.4664   31.4699 C   0  0  0  0  0  0  0  0  0  0  0  0
    0.5497   -0.5252   32.0577 C   0  0  0  0  0  0  0  0  0  0  0  0
    1.2672   -1.6258   30.8629 S   0  0  0  0  0  0  0  0  0  0  0  0
    1.4942   -2.8868   31.5402 O   0  0  0  0  0  0  0  0  0  0  0  0
    2.3152   -0.8762   30.0194 N   0  0  0  0  0  0  0  0  0  0  0  0
    3.6798   -0.5727   30.5085 C   0  0  0  0  0  0  0  0  0  0  0  0
    4.3688   -1.5370   31.2617 C   0  0  0  0  0  0  0  0  0  0  0  0
    5.6595   -1.3053   31.7460 C   0  0  0  0  0  0  0  0  0  0  0  0
    6.2992   -0.1074   31.4665 C   0  0  0  0  0  0  0  0  0  0  0  0
    7.6078    0.1671   31.9490 N   0  0  0  0  0  0  0  0  0  0  0  0
    7.9142    0.1985   33.6053 S   0  0  0  0  0  0  0  0  0  0  0  0
    6.9108    1.5685   34.1460 C   0  0  0  0  0  0  0  0  0  0  0  0
    7.4155   -1.0097   34.2224 O   0  0  0  0  0  0  0  0  0  0  0  0
    9.2990    0.5975   33.7381 O   0  0  0  0  0  0  0  0  0  0  0  0
    5.6615    0.8399   30.6671 C   0  0  0  0  0  0  0  0  0  0  0  0
    4.3582    0.6223   30.1585 C   0  0  0  0  0  0  0  0  0  0  0  0
    3.8509    1.7054   29.2691 C   0  0  0  0  0  0  0  0  0  0  0  0
    4.5674    2.1419   28.0532 C   0  0  0  0  0  0  0  0  0  0  0  0
    4.2153    3.2398   27.3548 C   0  0  0  0  0  0  0  0  0  0  0  0
    3.0943    3.9983   27.7724 C   0  0  0  0  0  0  0  0  0  0  0  0
    2.5394    5.1022   27.3236 N   0  0  0  0  0  0  0  0  0  0  0  0
    1.4225    5.3511   28.0957 N   0  0  0  0  0  0  0  0  0  0  0  0
    1.3038    4.3786   28.9711 C   0  0  0  0  0  0  0  0  0  0  0  0
    0.2984    4.1456   29.8450 N   0  0  0  0  0  0  0  0  0  0  0  0
    2.3826    3.5258   28.8610 N   0  0  0  0  0  0  0  0  0  0  0  0
    2.7627    2.4188   29.6221 C   0  0  0  0  0  0  0  0  0  0  0  0
    0.0339   -2.0934   29.8089 N   0  0  0  0  0  0  0  0  0  0  0  0
    0.1327   -1.9591   28.3664 C   0  0  0  0  0  0  0  0  0  0  0  0
   -0.2762   -0.5974   27.8676 C   0  0  0  0  0  0  0  0  0  0  0  0
    0.7028    0.3514   27.5024 C   0  0  0  0  0  0  0  0  0  0  0  0
    0.3432    1.5901   26.9705 C   0  0  0  0  0  0  0  0  0  0  0  0
   -0.9940    1.8618   26.8286 C   0  0  0  0  0  0  0  0  0  0  0  0
   -1.9562    0.9491   27.1778 C   0  0  0  0  0  0  0  0  0  0  0  0
   -1.6342   -0.2843   27.7018 C   0  0  0  0  0  0  0  0  0  0  0  0
   -3.2071    1.4023   26.9078 O   0  0  0  0  0  0  0  0  0  0  0  0
   -2.9245    2.7472   26.4742 C   0  0  0  0  0  0  0  0  0  0  0  0
   -1.5149    3.0013   26.3073 O   0  0  0  0  0  0  0  0  0  0  0  0
   -1.3194   -0.0327   31.0813 H   0  0  0  0  0  0  0  0  0  0  0  0
   -0.7447    1.1675   32.2459 H   0  0  0  0  0  0  0  0  0  0  0  0
    0.0231    1.0384   30.6549 H   0  0  0  0  0  0  0  0  0  0  0  0
    1.3741   -0.0092   32.5600 H   0  0  0  0  0  0  0  0  0  0  0  0
    0.0407   -1.1435   32.8045 H   0  0  0  0  0  0  0  0  0  0  0  0
    3.9190   -2.5025   31.4781 H   0  0  0  0  0  0  0  0  0  0  0  0
    6.1556   -2.0839   32.3221 H   0  0  0  0  0  0  0  0  0  0  0  0
    8.1812    0.8363   31.4350 H   0  0  0  0  0  0  0  0  0  0  0  0
    7.1121    1.7308   35.2073 H   0  0  0  0  0  0  0  0  0  0  0  0
    7.1888    2.4580   33.5777 H   0  0  0  0  0  0  0  0  0  0  0  0
    5.8569    1.3229   34.0062 H   0  0  0  0  0  0  0  0  0  0  0  0
    6.1795    1.7672   30.4277 H   0  0  0  0  0  0  0  0  0  0  0  0
    5.4108    1.5401   27.7241 H   0  0  0  0  0  0  0  0  0  0  0  0
    4.7550    3.5516   26.4685 H   0  0  0  0  0  0  0  0  0  0  0  0
   -0.4790    4.8152   29.7653 H   0  0  0  0  0  0  0  0  0  0  0  0
   -0.1207    3.2240   29.7478 H   0  0  0  0  0  0  0  0  0  0  0  0
    2.1614    2.2072   30.4961 H   0  0  0  0  0  0  0  0  0  0  0  0
   -0.0439   -3.0864   30.0009 H   0  0  0  0  0  0  0  0  0  0  0  0
    1.1285   -2.2372   28.0018 H   0  0  0  0  0  0  0  0  0  0  0  0
   -0.5479   -2.6924   27.9186 H   0  0  0  0  0  0  0  0  0  0  0  0
    1.7570    0.0986   27.5902 H   0  0  0  0  0  0  0  0  0  0  0  0
    1.0844    2.3012   26.6307 H   0  0  0  0  0  0  0  0  0  0  0  0
   -2.4097   -1.0076   27.9298 H   0  0  0  0  0  0  0  0  0  0  0  0
   -3.3055    3.4343   27.2335 H   0  0  0  0  0  0  0  0  0  0  0  0
   -3.4371    2.9360   25.5258 H   0  0  0  0  0  0  0  0  0  0  0  0
  1  2  1  0
  2  3  1  0
  3  4  2  0
  3  5  2  0
  5  6  1  0
  6  7  2  0
  7  8  1  0
  8  9  2  0
  9 10  1  0
 10 11  1  0
 11 12  1  0
 11 13  2  0
 11 14  2  0
  9 15  1  0
 15 16  2  0
 16 17  1  0
 17 18  1  0
 18 19  2  0
 19 20  1  0
 20 21  2  0
 21 22  1  0
 22 23  2  0
 23 24  1  0
 23 25  1  0
 25 26  1  0
  3 27  1  0
 27 28  1  0
 28 29  1  0
 29 30  2  0
 30 31  1  0
 31 32  2  0
 32 33  1  0
 33 34  2  0
 33 35  1  0
 35 36  1  0
 36 37  1  0
 16  6  1  0
 26 17  2  0
 34 29  1  0
 25 20  1  0
 37 32  1  0
  1 38  1  0
  1 39  1  0
  1 40  1  0
  2 41  1  0
  2 42  1  0
  7 43  1  0
  8 44  1  0
 10 45  1  0
 12 46  1  0
 12 47  1  0
 12 48  1  0
 15 49  1  0
 18 50  1  0
 19 51  1  0
 24 52  1  0
 24 53  1  0
 26 54  1  0
 27 55  1  0
 28 56  1  0
 28 57  1  0
 30 58  1  0
 31 59  1  0
 34 60  1  0
 36 61  1  0
 36 62  1  0
M  END
>  <Energy>  (282) 
-86.942434066556842

>  <compound_id>  (282) 
1616

>  <target_id>  (282) 
1

>  <reference_id>  (282) 
53

>  <inspiration_ids>  (282) 
[13, 53]

>  <energy_score>  (282) 
-104.12306979491838

>  <distance_score>  (282) 
2.3305981739587405

>  <path>  (282) 
/opt/xchem-fragalysis-2/maxwin/BulkDock/SCRATCH/505732/C1616-P53/C1616-P53.minimised.mol

>  <scratch_subdir>  (282) 
/opt/xchem-fragalysis-2/maxwin/BulkDock/SCRATCH/505732/C1616-P53

>  <fragmenstein_runtime>  (282) 
5.818799734115601

>  <fragmenstein_outcome>  (282) 
too moved

>  <fragmenstein_mode>  (282) 
expansion

>  <fragmenstein_error>  (282) 


$$$$
C1618-P13
     RDKit          3D

 65 69  0  0  0  0  0  0  0  0999 V2000
   -0.6926    0.2512   31.6991 C   0  0  0  0  0  0  0  0  0  0  0  0
    0.3755   -0.8170   31.7416 C   0  0  0  0  0  0  0  0  0  0  0  0
   -0.2314   -2.4631   31.4705 S   0  0  0  0  0  0  0  0  0  0  0  0
    0.9038   -3.3505   31.3595 O   0  0  0  0  0  0  0  0  0  0  0  0
   -1.4381   -2.7401   32.3688 N   0  0  0  0  0  0  0  0  0  0  0  0
   -1.2290   -2.7618   33.8337 C   0  0  0  0  0  0  0  0  0  0  0  0
   -2.2176   -1.8764   34.5807 C   0  0  0  0  0  0  0  0  0  0  0  0
   -3.3664   -1.3690   33.9435 C   0  0  0  0  0  0  0  0  0  0  0  0
   -4.3074   -0.5908   34.6234 C   0  0  0  0  0  0  0  0  0  0  0  0
   -5.3437   -0.1457   33.8454 O   0  0  0  0  0  0  0  0  0  0  0  0
   -6.6330   -0.3509   34.4200 C   0  0  0  0  0  0  0  0  0  0  0  0
   -4.1094   -0.2599   35.9685 C   0  0  0  0  0  0  0  0  0  0  0  0
   -5.0366    0.5529   36.5620 O   0  0  0  0  0  0  0  0  0  0  0  0
   -4.6962    1.1387   37.8120 C   0  0  0  0  0  0  0  0  0  0  0  0
   -2.9869   -0.7757   36.6237 C   0  0  0  0  0  0  0  0  0  0  0  0
   -2.0490   -1.5865   35.9497 C   0  0  0  0  0  0  0  0  0  0  0  0
   -0.9087   -2.0930   36.7377 C   0  0  0  0  0  0  0  0  0  0  0  0
    0.4163   -1.4660   36.7274 C   0  0  0  0  0  0  0  0  0  0  0  0
    1.4320   -1.9334   37.4795 C   0  0  0  0  0  0  0  0  0  0  0  0
    1.2209   -3.0587   38.3201 C   0  0  0  0  0  0  0  0  0  0  0  0
    2.0055   -3.7141   39.1451 N   0  0  0  0  0  0  0  0  0  0  0  0
    1.2615   -4.7258   39.7139 N   0  0  0  0  0  0  0  0  0  0  0  0
    0.0363   -4.6628   39.2393 C   0  0  0  0  0  0  0  0  0  0  0  0
   -1.0044   -5.4617   39.5618 N   0  0  0  0  0  0  0  0  0  0  0  0
   -0.0444   -3.6257   38.3283 N   0  0  0  0  0  0  0  0  0  0  0  0
   -1.0987   -3.1583   37.5447 C   0  0  0  0  0  0  0  0  0  0  0  0
   -0.9494   -2.5465   29.9587 N   0  0  0  0  0  0  0  0  0  0  0  0
   -0.1976   -2.3149   28.7374 C   0  0  0  0  0  0  0  0  0  0  0  0
   -0.3125   -0.8873   28.2612 C   0  0  0  0  0  0  0  0  0  0  0  0
    0.7990   -0.0146   28.2793 C   0  0  0  0  0  0  0  0  0  0  0  0
    0.6773    1.3132   27.8547 C   0  0  0  0  0  0  0  0  0  0  0  0
   -0.5553    1.7341   27.4037 C   0  0  0  0  0  0  0  0  0  0  0  0
   -1.6370    0.8897   27.3622 C   0  0  0  0  0  0  0  0  0  0  0  0
   -1.5482   -0.4193   27.7814 C   0  0  0  0  0  0  0  0  0  0  0  0
   -2.7470    1.4934   26.8626 O   0  0  0  0  0  0  0  0  0  0  0  0
   -2.2669    2.8391   26.6764 C   0  0  0  0  0  0  0  0  0  0  0  0
   -0.8503    2.9770   26.9375 O   0  0  0  0  0  0  0  0  0  0  0  0
   -1.3546    0.1842   32.5649 H   0  0  0  0  0  0  0  0  0  0  0  0
   -0.2255    1.2406   31.7198 H   0  0  0  0  0  0  0  0  0  0  0  0
   -1.3121    0.1825   30.8026 H   0  0  0  0  0  0  0  0  0  0  0  0
    0.8777   -0.8117   32.7144 H   0  0  0  0  0  0  0  0  0  0  0  0
    1.1458   -0.6289   30.9904 H   0  0  0  0  0  0  0  0  0  0  0  0
   -1.3090   -3.7948   34.1854 H   0  0  0  0  0  0  0  0  0  0  0  0
   -0.2144   -2.4241   34.0726 H   0  0  0  0  0  0  0  0  0  0  0  0
   -3.5499   -1.5996   32.8945 H   0  0  0  0  0  0  0  0  0  0  0  0
   -7.3358   -0.5087   33.5969 H   0  0  0  0  0  0  0  0  0  0  0  0
   -6.6732   -1.2376   35.0633 H   0  0  0  0  0  0  0  0  0  0  0  0
   -6.9526    0.5408   34.9662 H   0  0  0  0  0  0  0  0  0  0  0  0
   -3.7450    1.6786   37.7556 H   0  0  0  0  0  0  0  0  0  0  0  0
   -5.4760    1.8637   38.0642 H   0  0  0  0  0  0  0  0  0  0  0  0
   -4.6769    0.3831   38.6038 H   0  0  0  0  0  0  0  0  0  0  0  0
   -2.8144   -0.5614   37.6749 H   0  0  0  0  0  0  0  0  0  0  0  0
    0.5630   -0.5960   36.0927 H   0  0  0  0  0  0  0  0  0  0  0  0
    2.4114   -1.4682   37.4712 H   0  0  0  0  0  0  0  0  0  0  0  0
   -1.9583   -5.1072   39.5448 H   0  0  0  0  0  0  0  0  0  0  0  0
   -0.8465   -6.0443   40.3815 H   0  0  0  0  0  0  0  0  0  0  0  0
   -2.0377   -3.6858   37.6335 H   0  0  0  0  0  0  0  0  0  0  0  0
   -1.3524   -3.4717   29.9122 H   0  0  0  0  0  0  0  0  0  0  0  0
    0.8526   -2.6104   28.8421 H   0  0  0  0  0  0  0  0  0  0  0  0
   -0.6045   -2.9636   27.9567 H   0  0  0  0  0  0  0  0  0  0  0  0
    1.7666   -0.3721   28.6237 H   0  0  0  0  0  0  0  0  0  0  0  0
    1.5228    1.9908   27.8712 H   0  0  0  0  0  0  0  0  0  0  0  0
   -2.4083   -1.0788   27.7204 H   0  0  0  0  0  0  0  0  0  0  0  0
   -2.4603    3.1392   25.6405 H   0  0  0  0  0  0  0  0  0  0  0  0
   -2.8127    3.5117   27.3468 H   0  0  0  0  0  0  0  0  0  0  0  0
  1  2  1  0
  2  3  1  0
  3  4  2  0
  3  5  2  0
  5  6  1  0
  6  7  1  0
  7  8  2  0
  8  9  1  0
  9 10  1  0
 10 11  1  0
  9 12  2  0
 12 13  1  0
 13 14  1  0
 12 15  1  0
 15 16  2  0
 16 17  1  0
 17 18  1  0
 18 19  2  0
 19 20  1  0
 20 21  2  0
 21 22  1  0
 22 23  2  0
 23 24  1  0
 23 25  1  0
 25 26  1  0
  3 27  1  0
 27 28  1  0
 28 29  1  0
 29 30  2  0
 30 31  1  0
 31 32  2  0
 32 33  1  0
 33 34  2  0
 33 35  1  0
 35 36  1  0
 36 37  1  0
 16  7  1  0
 26 17  2  0
 34 29  1  0
 25 20  1  0
 37 32  1  0
  1 38  1  0
  1 39  1  0
  1 40  1  0
  2 41  1  0
  2 42  1  0
  6 43  1  0
  6 44  1  0
  8 45  1  0
 11 46  1  0
 11 47  1  0
 11 48  1  0
 14 49  1  0
 14 50  1  0
 14 51  1  0
 15 52  1  0
 18 53  1  0
 19 54  1  0
 24 55  1  0
 24 56  1  0
 26 57  1  0
 27 58  1  0
 28 59  1  0
 28 60  1  0
 30 61  1  0
 31 62  1  0
 34 63  1  0
 36 64  1  0
 36 65  1  0
M  END
>  <Energy>  (283) 
-30.960595661369521

>  <compound_id>  (283) 
1618

>  <target_id>  (283) 
1

>  <reference_id>  (283) 
13

>  <inspiration_ids>  (283) 
[13, 59]

>  <energy_score>  (283) 
-97.4657846140197

>  <distance_score>  (283) 
1.1411885666139052

>  <path>  (283) 
/opt/xchem-fragalysis-2/maxwin/BulkDock/SCRATCH/505732/C1618-P13/C1618-P13.minimised.mol

>  <scratch_subdir>  (283) 
/opt/xchem-fragalysis-2/maxwin/BulkDock/SCRATCH/505732/C1618-P13

>  <fragmenstein_runtime>  (283) 
12.109989881515503

>  <fragmenstein_outcome>  (283) 
too moved

>  <fragmenstein_mode>  (283) 
expansion

>  <fragmenstein_error>  (283) 


$$$$
C1618-P59
     RDKit          3D

 65 69  0  0  0  0  0  0  0  0999 V2000
   -0.6831    0.3178   31.6867 C   0  0  0  0  0  0  0  0  0  0  0  0
    0.3703   -0.7663   31.7028 C   0  0  0  0  0  0  0  0  0  0  0  0
   -0.2829   -2.4020   31.4731 S   0  0  0  0  0  0  0  0  0  0  0  0
    0.8239   -3.3271   31.3868 O   0  0  0  0  0  0  0  0  0  0  0  0
   -1.4984   -2.6132   32.3786 N   0  0  0  0  0  0  0  0  0  0  0  0
   -1.2781   -2.6377   33.8421 C   0  0  0  0  0  0  0  0  0  0  0  0
   -2.3281   -1.8486   34.6131 C   0  0  0  0  0  0  0  0  0  0  0  0
   -3.5066   -1.3949   33.9890 C   0  0  0  0  0  0  0  0  0  0  0  0
   -4.5142   -0.7249   34.6933 C   0  0  0  0  0  0  0  0  0  0  0  0
   -5.5754   -0.3523   33.9114 O   0  0  0  0  0  0  0  0  0  0  0  0
   -6.8614   -0.4523   34.5166 C   0  0  0  0  0  0  0  0  0  0  0  0
   -4.3437   -0.4420   36.0535 C   0  0  0  0  0  0  0  0  0  0  0  0
   -5.3289    0.2605   36.6934 O   0  0  0  0  0  0  0  0  0  0  0  0
   -4.9832    0.9114   37.9101 C   0  0  0  0  0  0  0  0  0  0  0  0
   -3.1856   -0.8986   36.6934 C   0  0  0  0  0  0  0  0  0  0  0  0
   -2.1853   -1.6053   35.9940 C   0  0  0  0  0  0  0  0  0  0  0  0
   -1.0156   -2.0632   36.7705 C   0  0  0  0  0  0  0  0  0  0  0  0
    0.2728   -1.3637   36.7775 C   0  0  0  0  0  0  0  0  0  0  0  0
    1.3141   -1.7941   37.5174 C   0  0  0  0  0  0  0  0  0  0  0  0
    1.1677   -2.9522   38.3274 C   0  0  0  0  0  0  0  0  0  0  0  0
    1.9880   -3.5871   39.1336 N   0  0  0  0  0  0  0  0  0  0  0  0
    1.3013   -4.6554   39.6719 N   0  0  0  0  0  0  0  0  0  0  0  0
    0.0738   -4.6462   39.1989 C   0  0  0  0  0  0  0  0  0  0  0  0
   -0.9220   -5.5119   39.4927 N   0  0  0  0  0  0  0  0  0  0  0  0
   -0.0641   -3.5875   38.3203 N   0  0  0  0  0  0  0  0  0  0  0  0
   -1.1430   -3.1571   37.5508 C   0  0  0  0  0  0  0  0  0  0  0  0
   -0.9986   -2.5024   29.9610 N   0  0  0  0  0  0  0  0  0  0  0  0
   -0.2450   -2.2858   28.7374 C   0  0  0  0  0  0  0  0  0  0  0  0
   -0.3768   -0.8693   28.2347 C   0  0  0  0  0  0  0  0  0  0  0  0
    0.7331    0.0053   28.2070 C   0  0  0  0  0  0  0  0  0  0  0  0
    0.5989    1.3232   27.7570 C   0  0  0  0  0  0  0  0  0  0  0  0
   -0.6453    1.7323   27.3287 C   0  0  0  0  0  0  0  0  0  0  0  0
   -1.7258    0.8849   27.3301 C   0  0  0  0  0  0  0  0  0  0  0  0
   -1.6248   -0.4149   27.7736 C   0  0  0  0  0  0  0  0  0  0  0  0
   -2.8494    1.4769   26.8470 O   0  0  0  0  0  0  0  0  0  0  0  0
   -2.3784    2.8216   26.6329 C   0  0  0  0  0  0  0  0  0  0  0  0
   -0.9554    2.9660   26.8481 O   0  0  0  0  0  0  0  0  0  0  0  0
   -1.3355    0.2493   32.5611 H   0  0  0  0  0  0  0  0  0  0  0  0
   -0.2045    1.3017   31.7081 H   0  0  0  0  0  0  0  0  0  0  0  0
   -1.3147    0.2626   30.7973 H   0  0  0  0  0  0  0  0  0  0  0  0
    0.9037   -0.7614   32.6588 H   0  0  0  0  0  0  0  0  0  0  0  0
    1.1180   -0.6007   30.9243 H   0  0  0  0  0  0  0  0  0  0  0  0
   -1.2655   -3.6790   34.1792 H   0  0  0  0  0  0  0  0  0  0  0  0
   -0.2972   -2.2104   34.0782 H   0  0  0  0  0  0  0  0  0  0  0  0
   -3.6654   -1.5932   32.9291 H   0  0  0  0  0  0  0  0  0  0  0  0
   -7.1205    0.4829   35.0207 H   0  0  0  0  0  0  0  0  0  0  0  0
   -7.5915   -0.6106   33.7169 H   0  0  0  0  0  0  0  0  0  0  0  0
   -6.9359   -1.3046   35.2012 H   0  0  0  0  0  0  0  0  0  0  0  0
   -4.0768    1.5165   37.8002 H   0  0  0  0  0  0  0  0  0  0  0  0
   -5.8041    1.5858   38.1721 H   0  0  0  0  0  0  0  0  0  0  0  0
   -4.8785    0.1851   38.7222 H   0  0  0  0  0  0  0  0  0  0  0  0
   -3.0382   -0.7225   37.7556 H   0  0  0  0  0  0  0  0  0  0  0  0
    0.3700   -0.4698   36.1669 H   0  0  0  0  0  0  0  0  0  0  0  0
    2.2660   -1.2748   37.5220 H   0  0  0  0  0  0  0  0  0  0  0  0
   -1.8931   -5.2049   39.4952 H   0  0  0  0  0  0  0  0  0  0  0  0
   -0.7302   -6.1154   40.2896 H   0  0  0  0  0  0  0  0  0  0  0  0
   -2.0485   -3.7392   37.6291 H   0  0  0  0  0  0  0  0  0  0  0  0
   -1.3987   -3.4280   29.9238 H   0  0  0  0  0  0  0  0  0  0  0  0
    0.8084   -2.5652   28.8545 H   0  0  0  0  0  0  0  0  0  0  0  0
   -0.6383   -2.9538   27.9652 H   0  0  0  0  0  0  0  0  0  0  0  0
    1.7103   -0.3429   28.5333 H   0  0  0  0  0  0  0  0  0  0  0  0
    1.4438    2.0014   27.7359 H   0  0  0  0  0  0  0  0  0  0  0  0
   -2.4859   -1.0757   27.7483 H   0  0  0  0  0  0  0  0  0  0  0  0
   -2.6069    3.1133   25.6018 H   0  0  0  0  0  0  0  0  0  0  0  0
   -2.9039    3.4961   27.3172 H   0  0  0  0  0  0  0  0  0  0  0  0
  1  2  1  0
  2  3  1  0
  3  4  2  0
  3  5  2  0
  5  6  1  0
  6  7  1  0
  7  8  2  0
  8  9  1  0
  9 10  1  0
 10 11  1  0
  9 12  2  0
 12 13  1  0
 13 14  1  0
 12 15  1  0
 15 16  2  0
 16 17  1  0
 17 18  1  0
 18 19  2  0
 19 20  1  0
 20 21  2  0
 21 22  1  0
 22 23  2  0
 23 24  1  0
 23 25  1  0
 25 26  1  0
  3 27  1  0
 27 28  1  0
 28 29  1  0
 29 30  2  0
 30 31  1  0
 31 32  2  0
 32 33  1  0
 33 34  2  0
 33 35  1  0
 35 36  1  0
 36 37  1  0
 16  7  1  0
 26 17  2  0
 34 29  1  0
 25 20  1  0
 37 32  1  0
  1 38  1  0
  1 39  1  0
  1 40  1  0
  2 41  1  0
  2 42  1  0
  6 43  1  0
  6 44  1  0
  8 45  1  0
 11 46  1  0
 11 47  1  0
 11 48  1  0
 14 49  1  0
 14 50  1  0
 14 51  1  0
 15 52  1  0
 18 53  1  0
 19 54  1  0
 24 55  1  0
 24 56  1  0
 26 57  1  0
 27 58  1  0
 28 59  1  0
 28 60  1  0
 30 61  1  0
 31 62  1  0
 34 63  1  0
 36 64  1  0
 36 65  1  0
M  END
>  <Energy>  (284) 
-31.136716797922674

>  <compound_id>  (284) 
1618

>  <target_id>  (284) 
1

>  <reference_id>  (284) 
59

>  <inspiration_ids>  (284) 
[13, 59]

>  <energy_score>  (284) 
-97.64190575057413

>  <distance_score>  (284) 
1.1135283574283266

>  <path>  (284) 
/opt/xchem-fragalysis-2/maxwin/BulkDock/SCRATCH/505732/C1618-P59/C1618-P59.minimised.mol

>  <scratch_subdir>  (284) 
/opt/xchem-fragalysis-2/maxwin/BulkDock/SCRATCH/505732/C1618-P59

>  <fragmenstein_runtime>  (284) 
13.36163854598999

>  <fragmenstein_outcome>  (284) 
too moved

>  <fragmenstein_mode>  (284) 
expansion

>  <fragmenstein_error>  (284) 


$$$$
C1618-P13
     RDKit          3D

 65 69  0  0  0  0  0  0  0  0999 V2000
   -2.9239   -1.1575   32.0388 C   0  0  0  0  0  0  0  0  0  0  0  0
   -1.4681   -1.4980   31.8593 C   0  0  0  0  0  0  0  0  0  0  0  0
   -1.1238   -2.1329   30.2220 S   0  0  0  0  0  0  0  0  0  0  0  0
   -1.3435   -3.5581   30.3044 O   0  0  0  0  0  0  0  0  0  0  0  0
   -1.6049   -1.1278   29.1729 N   0  0  0  0  0  0  0  0  0  0  0  0
   -1.1825   -1.0867   27.7351 C   0  0  0  0  0  0  0  0  0  0  0  0
   -0.9876    0.3274   27.2369 C   0  0  0  0  0  0  0  0  0  0  0  0
   -2.2428    0.9518   27.0645 C   0  0  0  0  0  0  0  0  0  0  0  0
   -2.4038    2.2732   26.7620 C   0  0  0  0  0  0  0  0  0  0  0  0
   -3.5989    2.9000   26.8215 O   0  0  0  0  0  0  0  0  0  0  0  0
   -4.5559    2.4089   25.9091 C   0  0  0  0  0  0  0  0  0  0  0  0
   -1.2702    3.0050   26.5944 C   0  0  0  0  0  0  0  0  0  0  0  0
   -1.3472    4.3595   26.5751 O   0  0  0  0  0  0  0  0  0  0  0  0
   -1.6785    4.8385   25.2724 C   0  0  0  0  0  0  0  0  0  0  0  0
   -0.0054    2.4142   26.6474 C   0  0  0  0  0  0  0  0  0  0  0  0
    0.2066    1.0559   26.9860 C   0  0  0  0  0  0  0  0  0  0  0  0
    1.6814    0.6026   27.0126 C   0  0  0  0  0  0  0  0  0  0  0  0
    2.8064    1.4409   26.4757 C   0  0  0  0  0  0  0  0  0  0  0  0
    4.1009    1.0675   26.4801 C   0  0  0  0  0  0  0  0  0  0  0  0
    4.4598   -0.1861   27.0168 C   0  0  0  0  0  0  0  0  0  0  0  0
    5.6115   -0.7890   27.2059 N   0  0  0  0  0  0  0  0  0  0  0  0
    5.3493   -2.0217   27.7637 N   0  0  0  0  0  0  0  0  0  0  0  0
    4.0478   -2.1489   27.8922 C   0  0  0  0  0  0  0  0  0  0  0  0
    3.3782   -3.2242   28.3688 N   0  0  0  0  0  0  0  0  0  0  0  0
    3.4297   -0.9875   27.4602 N   0  0  0  0  0  0  0  0  0  0  0  0
    2.0868   -0.6082   27.4529 C   0  0  0  0  0  0  0  0  0  0  0  0
    0.5306   -2.1453   30.0135 N   0  0  0  0  0  0  0  0  0  0  0  0
    1.4027   -1.3061   30.8032 C   0  0  0  0  0  0  0  0  0  0  0  0
    1.4610    0.1539   30.4065 C   0  0  0  0  0  0  0  0  0  0  0  0
    2.7329    0.7415   30.2150 C   0  0  0  0  0  0  0  0  0  0  0  0
    2.8796    2.0547   29.7506 C   0  0  0  0  0  0  0  0  0  0  0  0
    1.7448    2.7817   29.5107 C   0  0  0  0  0  0  0  0  0  0  0  0
    0.5113    2.2583   29.7661 C   0  0  0  0  0  0  0  0  0  0  0  0
    0.3372    0.9720   30.2255 C   0  0  0  0  0  0  0  0  0  0  0  0
   -0.4681    3.1309   29.4302 O   0  0  0  0  0  0  0  0  0  0  0  0
    0.2878    4.3274   29.2267 C   0  0  0  0  0  0  0  0  0  0  0  0
    1.6779    4.0343   28.9856 O   0  0  0  0  0  0  0  0  0  0  0  0
   -3.1083   -0.7757   33.0476 H   0  0  0  0  0  0  0  0  0  0  0  0
   -3.5515   -2.0420   31.8918 H   0  0  0  0  0  0  0  0  0  0  0  0
   -3.2329   -0.3940   31.3244 H   0  0  0  0  0  0  0  0  0  0  0  0
   -1.1682   -2.2711   32.5747 H   0  0  0  0  0  0  0  0  0  0  0  0
   -0.8771   -0.6084   32.0648 H   0  0  0  0  0  0  0  0  0  0  0  0
   -0.3375   -1.7356   27.5543 H   0  0  0  0  0  0  0  0  0  0  0  0
   -1.9967   -1.5563   27.1674 H   0  0  0  0  0  0  0  0  0  0  0  0
   -3.1145    0.3696   27.2797 H   0  0  0  0  0  0  0  0  0  0  0  0
   -4.4464    1.3487   25.7030 H   0  0  0  0  0  0  0  0  0  0  0  0
   -4.4830    2.9954   24.9917 H   0  0  0  0  0  0  0  0  0  0  0  0
   -5.5537    2.5499   26.3283 H   0  0  0  0  0  0  0  0  0  0  0  0
   -2.7137    4.6075   25.0076 H   0  0  0  0  0  0  0  0  0  0  0  0
   -0.9964    4.4357   24.5148 H   0  0  0  0  0  0  0  0  0  0  0  0
   -1.5680    5.9270   25.2791 H   0  0  0  0  0  0  0  0  0  0  0  0
    0.8196    3.1074   26.5270 H   0  0  0  0  0  0  0  0  0  0  0  0
    2.5870    2.3994   26.0209 H   0  0  0  0  0  0  0  0  0  0  0  0
    4.8760    1.7030   26.0686 H   0  0  0  0  0  0  0  0  0  0  0  0
    3.9339   -4.0762   28.3978 H   0  0  0  0  0  0  0  0  0  0  0  0
    2.4227   -3.3826   28.0701 H   0  0  0  0  0  0  0  0  0  0  0  0
    1.4389   -1.3482   27.8619 H   0  0  0  0  0  0  0  0  0  0  0  0
    0.7771   -3.1141   30.1879 H   0  0  0  0  0  0  0  0  0  0  0  0
    1.1901   -1.3825   31.8751 H   0  0  0  0  0  0  0  0  0  0  0  0
    2.4110   -1.7254   30.6977 H   0  0  0  0  0  0  0  0  0  0  0  0
    3.6386    0.1581   30.3821 H   0  0  0  0  0  0  0  0  0  0  0  0
    3.8614    2.4739   29.5613 H   0  0  0  0  0  0  0  0  0  0  0  0
   -0.6794    0.6548   30.3774 H   0  0  0  0  0  0  0  0  0  0  0  0
    0.2369    4.9464   30.1324 H   0  0  0  0  0  0  0  0  0  0  0  0
   -0.1015    4.9279   28.4066 H   0  0  0  0  0  0  0  0  0  0  0  0
  1  2  1  0
  2  3  1  0
  3  4  2  0
  3  5  2  0
  5  6  1  0
  6  7  1  0
  7  8  2  0
  8  9  1  0
  9 10  1  0
 10 11  1  0
  9 12  2  0
 12 13  1  0
 13 14  1  0
 12 15  1  0
 15 16  2  0
 16 17  1  0
 17 18  1  0
 18 19  2  0
 19 20  1  0
 20 21  2  0
 21 22  1  0
 22 23  2  0
 23 24  1  0
 23 25  1  0
 25 26  1  0
  3 27  1  0
 27 28  1  0
 28 29  1  0
 29 30  2  0
 30 31  1  0
 31 32  2  0
 32 33  1  0
 33 34  2  0
 33 35  1  0
 35 36  1  0
 36 37  1  0
 16  7  1  0
 26 17  2  0
 34 29  1  0
 25 20  1  0
 37 32  1  0
  1 38  1  0
  1 39  1  0
  1 40  1  0
  2 41  1  0
  2 42  1  0
  6 43  1  0
  6 44  1  0
  8 45  1  0
 11 46  1  0
 11 47  1  0
 11 48  1  0
 14 49  1  0
 14 50  1  0
 14 51  1  0
 15 52  1  0
 18 53  1  0
 19 54  1  0
 24 55  1  0
 24 56  1  0
 26 57  1  0
 27 58  1  0
 28 59  1  0
 28 60  1  0
 30 61  1  0
 31 62  1  0
 34 63  1  0
 36 64  1  0
 36 65  1  0
M  END
>  <Energy>  (285) 
18.651294980115228

>  <compound_id>  (285) 
1618

>  <target_id>  (285) 
1

>  <reference_id>  (285) 
13

>  <inspiration_ids>  (285) 
[13, 70]

>  <energy_score>  (285) 
-39.711234999304054

>  <distance_score>  (285) 
3.7250714301684074

>  <path>  (285) 
/opt/xchem-fragalysis-2/maxwin/BulkDock/SCRATCH/505732/C1618-P13/C1618-P13.minimised.mol

>  <scratch_subdir>  (285) 
/opt/xchem-fragalysis-2/maxwin/BulkDock/SCRATCH/505732/C1618-P13

>  <fragmenstein_runtime>  (285) 
6.0536158084869385

>  <fragmenstein_outcome>  (285) 
too moved

>  <fragmenstein_mode>  (285) 
expansion

>  <fragmenstein_error>  (285) 


$$$$
C1618-P70
     RDKit          3D

 65 69  0  0  0  0  0  0  0  0999 V2000
   -2.6957   -1.4456   32.4741 C   0  0  0  0  0  0  0  0  0  0  0  0
   -1.4147   -0.6438   32.4690 C   0  0  0  0  0  0  0  0  0  0  0  0
   -0.2265   -1.1621   31.2465 S   0  0  0  0  0  0  0  0  0  0  0  0
    1.0583   -0.9861   31.8871 O   0  0  0  0  0  0  0  0  0  0  0  0
   -0.7720   -0.8080   29.8023 N   0  0  0  0  0  0  0  0  0  0  0  0
   -0.4872    0.2940   27.9397 C   0  0  0  0  0  0  0  0  0  0  0  0
   -0.6215    1.9263   27.5450 C   0  0  0  0  0  0  0  0  0  0  0  0
   -1.6926    2.2246   26.6508 C   0  0  0  0  0  0  0  0  0  0  0  0
   -1.8954    3.4891   26.1037 C   0  0  0  0  0  0  0  0  0  0  0  0
   -2.9464    3.5267   25.2330 O   0  0  0  0  0  0  0  0  0  0  0  0
   -2.9439    4.5451   24.2395 C   0  0  0  0  0  0  0  0  0  0  0  0
   -1.0581    4.5239   26.5009 C   0  0  0  0  0  0  0  0  0  0  0  0
   -1.2872    5.7797   26.0245 O   0  0  0  0  0  0  0  0  0  0  0  0
   -1.0028    6.8459   26.9253 C   0  0  0  0  0  0  0  0  0  0  0  0
    0.0427    4.2420   27.3185 C   0  0  0  0  0  0  0  0  0  0  0  0
    0.3062    2.9504   27.8129 C   0  0  0  0  0  0  0  0  0  0  0  0
    1.5931    2.8246   28.5168 C   0  0  0  0  0  0  0  0  0  0  0  0
    1.8337    3.3893   29.8514 C   0  0  0  0  0  0  0  0  0  0  0  0
    3.0421    3.3375   30.4443 C   0  0  0  0  0  0  0  0  0  0  0  0
    4.1232    2.7144   29.7682 C   0  0  0  0  0  0  0  0  0  0  0  0
    5.3831    2.5149   30.0870 N   0  0  0  0  0  0  0  0  0  0  0  0
    5.9724    1.8223   29.0502 N   0  0  0  0  0  0  0  0  0  0  0  0
    5.0601    1.5990   28.1306 C   0  0  0  0  0  0  0  0  0  0  0  0
    5.2037    0.8999   26.9854 N   0  0  0  0  0  0  0  0  0  0  0  0
    3.8693    2.1809   28.5143 N   0  0  0  0  0  0  0  0  0  0  0  0
    2.6329    2.2538   27.8754 C   0  0  0  0  0  0  0  0  0  0  0  0
   -0.3793   -2.8943   31.1420 N   0  0  0  0  0  0  0  0  0  0  0  0
    0.7269   -3.7182   30.5886 C   0  0  0  0  0  0  0  0  0  0  0  0
    1.2456   -3.1370   29.2279 C   0  0  0  0  0  0  0  0  0  0  0  0
    2.3783   -2.1521   29.5139 C   0  0  0  0  0  0  0  0  0  0  0  0
    2.2524   -0.7520   29.4552 C   0  0  0  0  0  0  0  0  0  0  0  0
    1.0234   -0.4942   28.9549 C   0  0  0  0  0  0  0  0  0  0  0  0
   -0.0669   -1.6948   28.1691 C   0  0  0  0  0  0  0  0  0  0  0  0
    0.1597   -3.0205   28.2998 C   0  0  0  0  0  0  0  0  0  0  0  0
   -1.8288   -1.1474   28.2918 O   0  0  0  0  0  0  0  0  0  0  0  0
   -1.8890    0.5113   29.2665 C   0  0  0  0  0  0  0  0  0  0  0  0
   -0.0166    0.8944   29.6445 O   0  0  0  0  0  0  0  0  0  0  0  0
   -3.4330   -0.9815   33.1363 H   0  0  0  0  0  0  0  0  0  0  0  0
   -2.5195   -2.4629   32.8368 H   0  0  0  0  0  0  0  0  0  0  0  0
   -3.1267   -1.5242   31.4771 H   0  0  0  0  0  0  0  0  0  0  0  0
   -0.9307   -0.7338   33.4476 H   0  0  0  0  0  0  0  0  0  0  0  0
   -1.6095    0.4197   32.3045 H   0  0  0  0  0  0  0  0  0  0  0  0
   -1.1718   -0.0425   27.1090 H   0  0  0  0  0  0  0  0  0  0  0  0
    0.4347    0.1315   27.2980 H   0  0  0  0  0  0  0  0  0  0  0  0
   -2.4030    1.4487   26.3627 H   0  0  0  0  0  0  0  0  0  0  0  0
   -1.9655    4.6377   23.7559 H   0  0  0  0  0  0  0  0  0  0  0  0
   -3.2793    5.5000   24.6485 H   0  0  0  0  0  0  0  0  0  0  0  0
   -3.6628    4.2536   23.4672 H   0  0  0  0  0  0  0  0  0  0  0  0
   -1.3459    6.6267   27.9423 H   0  0  0  0  0  0  0  0  0  0  0  0
   -1.5403    7.7319   26.5739 H   0  0  0  0  0  0  0  0  0  0  0  0
    0.0656    7.0827   26.9160 H   0  0  0  0  0  0  0  0  0  0  0  0
    0.7519    5.0368   27.5429 H   0  0  0  0  0  0  0  0  0  0  0  0
    0.9929    3.8559   30.3582 H   0  0  0  0  0  0  0  0  0  0  0  0
    3.2120    3.7527   31.4308 H   0  0  0  0  0  0  0  0  0  0  0  0
    6.0693    0.3691   26.9288 H   0  0  0  0  0  0  0  0  0  0  0  0
    4.4214    0.3578   26.6258 H   0  0  0  0  0  0  0  0  0  0  0  0
    2.5717    1.8387   26.8776 H   0  0  0  0  0  0  0  0  0  0  0  0
   -1.1243   -2.9340   30.4510 H   0  0  0  0  0  0  0  0  0  0  0  0
    1.5439   -3.7913   31.3149 H   0  0  0  0  0  0  0  0  0  0  0  0
    0.3642   -4.7384   30.4149 H   0  0  0  0  0  0  0  0  0  0  0  0
    3.1668   -2.5169   30.1828 H   0  0  0  0  0  0  0  0  0  0  0  0
    2.8722   -0.0801   30.0224 H   0  0  0  0  0  0  0  0  0  0  0  0
   -0.6494   -3.7332   28.2315 H   0  0  0  0  0  0  0  0  0  0  0  0
   -2.4175    0.3247   30.2174 H   0  0  0  0  0  0  0  0  0  0  0  0
   -2.3755    1.2713   28.6625 H   0  0  0  0  0  0  0  0  0  0  0  0
  1  2  1  0
  2  3  1  0
  3  4  2  0
  3  5  2  0
  5  6  1  0
  6  7  1  0
  7  8  2  0
  8  9  1  0
  9 10  1  0
 10 11  1  0
  9 12  2  0
 12 13  1  0
 13 14  1  0
 12 15  1  0
 15 16  2  0
 16 17  1  0
 17 18  1  0
 18 19  2  0
 19 20  1  0
 20 21  2  0
 21 22  1  0
 22 23  2  0
 23 24  1  0
 23 25  1  0
 25 26  1  0
  3 27  1  0
 27 28  1  0
 28 29  1  0
 29 30  2  0
 30 31  1  0
 31 32  2  0
 32 33  1  0
 33 34  2  0
 33 35  1  0
 35 36  1  0
 36 37  1  0
 16  7  1  0
 26 17  2  0
 34 29  1  0
 25 20  1  0
 37 32  1  0
  1 38  1  0
  1 39  1  0
  1 40  1  0
  2 41  1  0
  2 42  1  0
  6 43  1  0
  6 44  1  0
  8 45  1  0
 11 46  1  0
 11 47  1  0
 11 48  1  0
 14 49  1  0
 14 50  1  0
 14 51  1  0
 15 52  1  0
 18 53  1  0
 19 54  1  0
 24 55  1  0
 24 56  1  0
 26 57  1  0
 27 58  1  0
 28 59  1  0
 28 60  1  0
 30 61  1  0
 31 62  1  0
 34 63  1  0
 36 64  1  0
 36 65  1  0
M  END
>  <Energy>  (286) 
1076.64285741972

>  <compound_id>  (286) 
1618

>  <target_id>  (286) 
1

>  <reference_id>  (286) 
70

>  <inspiration_ids>  (286) 
[13, 70]

>  <energy_score>  (286) 
1018.0352253438592

>  <distance_score>  (286) 
3.4526536025538044

>  <path>  (286) 
/opt/xchem-fragalysis-2/maxwin/BulkDock/SCRATCH/505732/C1618-P70/C1618-P70.minimised.mol

>  <scratch_subdir>  (286) 
/opt/xchem-fragalysis-2/maxwin/BulkDock/SCRATCH/505732/C1618-P70

>  <fragmenstein_runtime>  (286) 
13.409911394119263

>  <fragmenstein_outcome>  (286) 
too moved

>  <fragmenstein_mode>  (286) 
expansion

>  <fragmenstein_error>  (286) 


$$$$
C1620-P13
     RDKit          3D

 61 65  0  0  0  0  0  0  0  0999 V2000
   -2.1885   -0.8120   31.7236 C   0  0  0  0  0  0  0  0  0  0  0  0
   -0.7095   -1.1139   31.8024 C   0  0  0  0  0  0  0  0  0  0  0  0
   -0.2861   -2.7804   31.3465 S   0  0  0  0  0  0  0  0  0  0  0  0
    1.1535   -2.8485   31.2258 O   0  0  0  0  0  0  0  0  0  0  0  0
   -1.0998   -3.7708   32.2069 N   0  0  0  0  0  0  0  0  0  0  0  0
   -0.4142   -4.1995   33.4517 C   0  0  0  0  0  0  0  0  0  0  0  0
   -0.4520   -3.3664   34.5564 C   0  0  0  0  0  0  0  0  0  0  0  0
    0.1549   -3.7447   35.7594 C   0  0  0  0  0  0  0  0  0  0  0  0
    0.0303   -2.8873   36.9671 C   0  0  0  0  0  0  0  0  0  0  0  0
    0.9837   -2.6579   37.5941 O   0  0  0  0  0  0  0  0  0  0  0  0
   -1.4370   -2.4864   37.2000 N   0  0  0  0  0  0  0  0  0  0  0  0
   -2.0243   -1.6423   38.1987 C   0  0  0  0  0  0  0  0  0  0  0  0
    0.8620   -4.9442   35.8540 C   0  0  0  0  0  0  0  0  0  0  0  0
    0.8988   -5.7943   34.7621 C   0  0  0  0  0  0  0  0  0  0  0  0
    0.2387   -5.4259   33.5784 C   0  0  0  0  0  0  0  0  0  0  0  0
   -0.1599   -6.5142   32.7295 C   0  0  0  0  0  0  0  0  0  0  0  0
   -1.2677   -7.2812   33.2553 C   0  0  0  0  0  0  0  0  0  0  0  0
   -1.7598   -8.2975   32.5706 C   0  0  0  0  0  0  0  0  0  0  0  0
   -1.1322   -8.6705   31.3873 C   0  0  0  0  0  0  0  0  0  0  0  0
   -1.3478   -9.7028   30.6256 N   0  0  0  0  0  0  0  0  0  0  0  0
   -0.6576   -9.4944   29.4799 N   0  0  0  0  0  0  0  0  0  0  0  0
    0.1863   -8.5269   29.6839 C   0  0  0  0  0  0  0  0  0  0  0  0
    1.3163   -8.3919   28.9439 N   0  0  0  0  0  0  0  0  0  0  0  0
   -0.1209   -7.8873   30.8609 N   0  0  0  0  0  0  0  0  0  0  0  0
    0.3902   -6.7941   31.5348 C   0  0  0  0  0  0  0  0  0  0  0  0
   -0.8442   -3.0876   29.8087 N   0  0  0  0  0  0  0  0  0  0  0  0
   -0.1550   -2.6200   28.6261 C   0  0  0  0  0  0  0  0  0  0  0  0
   -0.3715   -1.1595   28.3080 C   0  0  0  0  0  0  0  0  0  0  0  0
    0.6537   -0.2111   28.5308 C   0  0  0  0  0  0  0  0  0  0  0  0
    0.4854    1.1323   28.1721 C   0  0  0  0  0  0  0  0  0  0  0  0
   -0.7061    1.4975   27.5841 C   0  0  0  0  0  0  0  0  0  0  0  0
   -1.7089    0.5871   27.3659 C   0  0  0  0  0  0  0  0  0  0  0  0
   -1.5790   -0.7384   27.7257 C   0  0  0  0  0  0  0  0  0  0  0  0
   -2.7827    1.1418   26.7447 O   0  0  0  0  0  0  0  0  0  0  0  0
   -2.3646    2.5149   26.6331 C   0  0  0  0  0  0  0  0  0  0  0  0
   -1.0275    2.7405   27.1360 O   0  0  0  0  0  0  0  0  0  0  0  0
   -2.3829    0.1708   32.1558 H   0  0  0  0  0  0  0  0  0  0  0  0
   -2.5383   -0.8074   30.6888 H   0  0  0  0  0  0  0  0  0  0  0  0
   -2.7845   -1.5420   32.2795 H   0  0  0  0  0  0  0  0  0  0  0  0
   -0.1442   -0.4320   31.1649 H   0  0  0  0  0  0  0  0  0  0  0  0
   -0.3437   -0.9598   32.8218 H   0  0  0  0  0  0  0  0  0  0  0  0
   -0.9946   -2.4284   34.5019 H   0  0  0  0  0  0  0  0  0  0  0  0
   -2.0239   -2.9265   36.4984 H   0  0  0  0  0  0  0  0  0  0  0  0
   -2.7505   -2.2293   38.7652 H   0  0  0  0  0  0  0  0  0  0  0  0
   -2.5304   -0.8137   37.6987 H   0  0  0  0  0  0  0  0  0  0  0  0
   -1.2451   -1.2629   38.8630 H   0  0  0  0  0  0  0  0  0  0  0  0
    1.3379   -5.2265   36.7912 H   0  0  0  0  0  0  0  0  0  0  0  0
    1.3599   -6.7739   34.8658 H   0  0  0  0  0  0  0  0  0  0  0  0
   -1.7178   -6.9979   34.2019 H   0  0  0  0  0  0  0  0  0  0  0  0
   -2.6047   -8.8381   32.9441 H   0  0  0  0  0  0  0  0  0  0  0  0
    1.1562   -8.7987   28.0159 H   0  0  0  0  0  0  0  0  0  0  0  0
    1.8950   -9.1740   29.2675 H   0  0  0  0  0  0  0  0  0  0  0  0
    1.1905   -6.2334   31.0699 H   0  0  0  0  0  0  0  0  0  0  0  0
   -1.8372   -2.9157   29.7303 H   0  0  0  0  0  0  0  0  0  0  0  0
   -0.5231   -3.2174   27.7924 H   0  0  0  0  0  0  0  0  0  0  0  0
    0.9170   -2.8448   28.6755 H   0  0  0  0  0  0  0  0  0  0  0  0
    1.5980   -0.5279   28.9710 H   0  0  0  0  0  0  0  0  0  0  0  0
    1.2720    1.8608   28.3317 H   0  0  0  0  0  0  0  0  0  0  0  0
   -2.3701   -1.4451   27.4916 H   0  0  0  0  0  0  0  0  0  0  0  0
   -3.0609    3.1511   27.1880 H   0  0  0  0  0  0  0  0  0  0  0  0
   -2.3914    2.8036   25.5762 H   0  0  0  0  0  0  0  0  0  0  0  0
  1  2  1  0
  2  3  1  0
  3  4  2  0
  3  5  2  0
  5  6  1  0
  6  7  2  0
  7  8  1  0
  8  9  1  0
  9 10  2  0
  9 11  1  0
 11 12  1  0
  8 13  2  0
 13 14  1  0
 14 15  2  0
 15 16  1  0
 16 17  1  0
 17 18  2  0
 18 19  1  0
 19 20  2  0
 20 21  1  0
 21 22  2  0
 22 23  1  0
 22 24  1  0
 24 25  1  0
  3 26  1  0
 26 27  1  0
 27 28  1  0
 28 29  2  0
 29 30  1  0
 30 31  2  0
 31 32  1  0
 32 33  2  0
 32 34  1  0
 34 35  1  0
 35 36  1  0
 15  6  1  0
 25 16  2  0
 33 28  1  0
 24 19  1  0
 36 31  1  0
  1 37  1  0
  1 38  1  0
  1 39  1  0
  2 40  1  0
  2 41  1  0
  7 42  1  0
 11 43  1  0
 12 44  1  0
 12 45  1  0
 12 46  1  0
 13 47  1  0
 14 48  1  0
 17 49  1  0
 18 50  1  0
 23 51  1  0
 23 52  1  0
 25 53  1  0
 26 54  1  0
 27 55  1  0
 27 56  1  0
 29 57  1  0
 30 58  1  0
 33 59  1  0
 35 60  1  0
 35 61  1  0
M  END
>  <Energy>  (287) 
-9.2788186142924705

>  <compound_id>  (287) 
1620

>  <target_id>  (287) 
1

>  <reference_id>  (287) 
13

>  <inspiration_ids>  (287) 
[13, 78]

>  <energy_score>  (287) 
-32.21137138553593

>  <distance_score>  (287) 
2.6001836867932813

>  <path>  (287) 
/opt/xchem-fragalysis-2/maxwin/BulkDock/SCRATCH/505732/C1620-P13/C1620-P13.minimised.mol

>  <scratch_subdir>  (287) 
/opt/xchem-fragalysis-2/maxwin/BulkDock/SCRATCH/505732/C1620-P13

>  <fragmenstein_runtime>  (287) 
18.656352519989014

>  <fragmenstein_outcome>  (287) 
too moved

>  <fragmenstein_mode>  (287) 
expansion

>  <fragmenstein_error>  (287) 


$$$$
C1620-P78
     RDKit          3D

 61 65  0  0  0  0  0  0  0  0999 V2000
   -2.3606   -0.5712   31.9903 C   0  0  0  0  0  0  0  0  0  0  0  0
   -0.8525   -0.6625   31.9517 C   0  0  0  0  0  0  0  0  0  0  0  0
   -0.2583   -2.2960   31.5924 S   0  0  0  0  0  0  0  0  0  0  0  0
    1.1763   -2.2101   31.4255 O   0  0  0  0  0  0  0  0  0  0  0  0
   -0.9814   -3.2722   32.5393 N   0  0  0  0  0  0  0  0  0  0  0  0
   -0.3956   -3.4912   33.8813 C   0  0  0  0  0  0  0  0  0  0  0  0
   -0.8316   -2.6948   34.9325 C   0  0  0  0  0  0  0  0  0  0  0  0
   -0.3275   -2.9056   36.2198 C   0  0  0  0  0  0  0  0  0  0  0  0
   -0.8074   -2.0884   37.3704 C   0  0  0  0  0  0  0  0  0  0  0  0
    0.0300   -1.6911   38.1239 O   0  0  0  0  0  0  0  0  0  0  0  0
   -2.2272   -1.9462   37.3945 N   0  0  0  0  0  0  0  0  0  0  0  0
   -3.0841   -1.2058   38.2753 C   0  0  0  0  0  0  0  0  0  0  0  0
    0.6460   -3.8871   36.4493 C   0  0  0  0  0  0  0  0  0  0  0  0
    1.0793   -4.6989   35.4032 C   0  0  0  0  0  0  0  0  0  0  0  0
    0.5499   -4.5114   34.1219 C   0  0  0  0  0  0  0  0  0  0  0  0
    0.8183   -5.4854   33.0676 C   0  0  0  0  0  0  0  0  0  0  0  0
    1.6602   -5.2701   31.8942 C   0  0  0  0  0  0  0  0  0  0  0  0
    1.4737   -5.9758   30.7613 C   0  0  0  0  0  0  0  0  0  0  0  0
    0.4921   -7.0034   30.7393 C   0  0  0  0  0  0  0  0  0  0  0  0
    0.0752   -7.8429   29.8174 N   0  0  0  0  0  0  0  0  0  0  0  0
   -0.9845   -8.5528   30.3459 N   0  0  0  0  0  0  0  0  0  0  0  0
   -1.1475   -8.1756   31.5905 C   0  0  0  0  0  0  0  0  0  0  0  0
   -2.0970   -8.5350   32.4715 N   0  0  0  0  0  0  0  0  0  0  0  0
   -0.2171   -7.2243   31.9008 N   0  0  0  0  0  0  0  0  0  0  0  0
   -0.0651   -6.4955   33.0586 C   0  0  0  0  0  0  0  0  0  0  0  0
   -0.8338   -2.7917   30.0984 N   0  0  0  0  0  0  0  0  0  0  0  0
   -0.1660   -2.4885   28.8478 C   0  0  0  0  0  0  0  0  0  0  0  0
   -0.3082   -1.0472   28.4229 C   0  0  0  0  0  0  0  0  0  0  0  0
    0.7273   -0.1182   28.6772 C   0  0  0  0  0  0  0  0  0  0  0  0
    0.6087    1.2193   28.2839 C   0  0  0  0  0  0  0  0  0  0  0  0
   -0.5469    1.5985   27.6371 C   0  0  0  0  0  0  0  0  0  0  0  0
   -1.5562    0.7043   27.3788 C   0  0  0  0  0  0  0  0  0  0  0  0
   -1.4700   -0.6187   27.7598 C   0  0  0  0  0  0  0  0  0  0  0  0
   -2.5953    1.2766   26.7146 O   0  0  0  0  0  0  0  0  0  0  0  0
   -2.1537    2.6467   26.6370 C   0  0  0  0  0  0  0  0  0  0  0  0
   -0.8277    2.8463   27.1759 O   0  0  0  0  0  0  0  0  0  0  0  0
   -2.6504    0.3447   32.5051 H   0  0  0  0  0  0  0  0  0  0  0  0
   -2.7714   -0.5550   30.9778 H   0  0  0  0  0  0  0  0  0  0  0  0
   -2.8282   -1.3993   32.5296 H   0  0  0  0  0  0  0  0  0  0  0  0
   -0.4387    0.0341   31.2208 H   0  0  0  0  0  0  0  0  0  0  0  0
   -0.4333   -0.3909   32.9264 H   0  0  0  0  0  0  0  0  0  0  0  0
   -1.5739   -1.9258   34.7485 H   0  0  0  0  0  0  0  0  0  0  0  0
   -2.6263   -2.4865   36.6350 H   0  0  0  0  0  0  0  0  0  0  0  0
   -2.4853   -0.6873   39.0274 H   0  0  0  0  0  0  0  0  0  0  0  0
   -3.7714   -1.9047   38.7575 H   0  0  0  0  0  0  0  0  0  0  0  0
   -3.6506   -0.4846   37.6822 H   0  0  0  0  0  0  0  0  0  0  0  0
    1.0468   -4.0297   37.4520 H   0  0  0  0  0  0  0  0  0  0  0  0
    1.8007   -5.4885   35.5985 H   0  0  0  0  0  0  0  0  0  0  0  0
    2.3870   -4.4627   31.9281 H   0  0  0  0  0  0  0  0  0  0  0  0
    2.0457   -5.7689   29.8650 H   0  0  0  0  0  0  0  0  0  0  0  0
   -1.7998   -8.7650   33.4222 H   0  0  0  0  0  0  0  0  0  0  0  0
   -2.8063   -9.1986   32.1592 H   0  0  0  0  0  0  0  0  0  0  0  0
   -0.7865   -6.6753   33.8470 H   0  0  0  0  0  0  0  0  0  0  0  0
   -1.8238   -2.6072   30.0210 H   0  0  0  0  0  0  0  0  0  0  0  0
   -0.5913   -3.1293   28.0690 H   0  0  0  0  0  0  0  0  0  0  0  0
    0.8930   -2.7698   28.8918 H   0  0  0  0  0  0  0  0  0  0  0  0
    1.6353   -0.4433   29.1834 H   0  0  0  0  0  0  0  0  0  0  0  0
    1.4006    1.9348   28.4738 H   0  0  0  0  0  0  0  0  0  0  0  0
   -2.2651   -1.3142   27.5059 H   0  0  0  0  0  0  0  0  0  0  0  0
   -2.8564    3.2816   27.1867 H   0  0  0  0  0  0  0  0  0  0  0  0
   -2.1517    2.9532   25.5848 H   0  0  0  0  0  0  0  0  0  0  0  0
  1  2  1  0
  2  3  1  0
  3  4  2  0
  3  5  2  0
  5  6  1  0
  6  7  2  0
  7  8  1  0
  8  9  1  0
  9 10  2  0
  9 11  1  0
 11 12  1  0
  8 13  2  0
 13 14  1  0
 14 15  2  0
 15 16  1  0
 16 17  1  0
 17 18  2  0
 18 19  1  0
 19 20  2  0
 20 21  1  0
 21 22  2  0
 22 23  1  0
 22 24  1  0
 24 25  1  0
  3 26  1  0
 26 27  1  0
 27 28  1  0
 28 29  2  0
 29 30  1  0
 30 31  2  0
 31 32  1  0
 32 33  2  0
 32 34  1  0
 34 35  1  0
 35 36  1  0
 15  6  1  0
 25 16  2  0
 33 28  1  0
 24 19  1  0
 36 31  1  0
  1 37  1  0
  1 38  1  0
  1 39  1  0
  2 40  1  0
  2 41  1  0
  7 42  1  0
 11 43  1  0
 12 44  1  0
 12 45  1  0
 12 46  1  0
 13 47  1  0
 14 48  1  0
 17 49  1  0
 18 50  1  0
 23 51  1  0
 23 52  1  0
 25 53  1  0
 26 54  1  0
 27 55  1  0
 27 56  1  0
 29 57  1  0
 30 58  1  0
 33 59  1  0
 35 60  1  0
 35 61  1  0
M  END
>  <Energy>  (288) 
-36.906166814997086

>  <compound_id>  (288) 
1620

>  <target_id>  (288) 
1

>  <reference_id>  (288) 
78

>  <inspiration_ids>  (288) 
[13, 78]

>  <energy_score>  (288) 
-56.35436213559467

>  <distance_score>  (288) 
3.3109872605059723

>  <path>  (288) 
/opt/xchem-fragalysis-2/maxwin/BulkDock/SCRATCH/505732/C1620-P78/C1620-P78.minimised.mol

>  <scratch_subdir>  (288) 
/opt/xchem-fragalysis-2/maxwin/BulkDock/SCRATCH/505732/C1620-P78

>  <fragmenstein_runtime>  (288) 
20.110735654830933

>  <fragmenstein_outcome>  (288) 
too moved

>  <fragmenstein_mode>  (288) 
expansion

>  <fragmenstein_error>  (288) 


$$$$
C1621-P13
     RDKit          3D

 66 69  0  0  0  0  0  0  0  0999 V2000
   -2.3944   -1.5017   31.9479 C   0  0  0  0  0  0  0  0  0  0  0  0
   -0.9007   -1.5728   32.1762 C   0  0  0  0  0  0  0  0  0  0  0  0
   -0.1200   -2.9926   31.4408 S   0  0  0  0  0  0  0  0  0  0  0  0
    1.2908   -2.7159   31.2960 O   0  0  0  0  0  0  0  0  0  0  0  0
   -0.6701   -4.3121   31.9943 N   0  0  0  0  0  0  0  0  0  0  0  0
   -0.7015   -4.6463   33.4221 C   0  0  0  0  0  0  0  0  0  0  0  0
    0.6842   -4.9473   34.0678 C   0  0  0  0  0  0  0  0  0  0  0  0
    1.3642   -3.6645   34.5567 C   0  0  0  0  0  0  0  0  0  0  0  0
    0.5880   -3.0300   35.6892 C   0  0  0  0  0  0  0  0  0  0  0  0
    0.4994   -1.8131   35.8217 O   0  0  0  0  0  0  0  0  0  0  0  0
   -0.0364   -3.8807   36.5642 N   0  0  0  0  0  0  0  0  0  0  0  0
   -0.3970   -5.1715   36.2780 C   0  0  0  0  0  0  0  0  0  0  0  0
   -1.3676   -5.6958   36.8062 O   0  0  0  0  0  0  0  0  0  0  0  0
    0.4862   -5.8937   35.2864 C   0  0  0  0  0  0  0  0  0  0  0  0
    1.7412   -6.3137   36.0834 C   0  0  0  0  0  0  0  0  0  0  0  0
    2.5701   -7.4093   35.4295 C   0  0  0  0  0  0  0  0  0  0  0  0
    2.3151   -7.7730   34.3223 O   0  0  0  0  0  0  0  0  0  0  0  0
    3.5806   -7.8398   36.3435 N   0  0  0  0  0  0  0  0  0  0  0  0
    4.6618   -8.7752   36.1829 C   0  0  0  0  0  0  0  0  0  0  0  0
    5.2933   -9.0956   37.5067 C   0  0  0  0  0  0  0  0  0  0  0  0
    4.6609   -9.9755   38.3970 C   0  0  0  0  0  0  0  0  0  0  0  0
    5.2304  -10.2571   39.6393 C   0  0  0  0  0  0  0  0  0  0  0  0
    6.4338   -9.6581   40.0065 C   0  0  0  0  0  0  0  0  0  0  0  0
    7.0674   -8.7758   39.1333 C   0  0  0  0  0  0  0  0  0  0  0  0
    6.4992   -8.4925   37.8901 C   0  0  0  0  0  0  0  0  0  0  0  0
   -0.6982   -3.1383   29.8803 N   0  0  0  0  0  0  0  0  0  0  0  0
   -0.0085   -2.5931   28.7321 C   0  0  0  0  0  0  0  0  0  0  0  0
   -0.2362   -1.1168   28.5213 C   0  0  0  0  0  0  0  0  0  0  0  0
    0.7323   -0.1722   28.9287 C   0  0  0  0  0  0  0  0  0  0  0  0
    0.5700    1.1892   28.6486 C   0  0  0  0  0  0  0  0  0  0  0  0
   -0.5620    1.5750   27.9629 C   0  0  0  0  0  0  0  0  0  0  0  0
   -1.5212    0.6692   27.5829 C   0  0  0  0  0  0  0  0  0  0  0  0
   -1.3955   -0.6756   27.8585 C   0  0  0  0  0  0  0  0  0  0  0  0
   -2.5446    1.2529   26.9049 O   0  0  0  0  0  0  0  0  0  0  0  0
   -2.1346    2.6340   26.9190 C   0  0  0  0  0  0  0  0  0  0  0  0
   -0.8623    2.8430   27.5740 O   0  0  0  0  0  0  0  0  0  0  0  0
   -2.9002   -2.4029   32.3066 H   0  0  0  0  0  0  0  0  0  0  0  0
   -2.6217   -1.3858   30.8855 H   0  0  0  0  0  0  0  0  0  0  0  0
   -2.8174   -0.6410   32.4749 H   0  0  0  0  0  0  0  0  0  0  0  0
   -0.6753   -1.5938   33.2454 H   0  0  0  0  0  0  0  0  0  0  0  0
   -0.4169   -0.6850   31.7574 H   0  0  0  0  0  0  0  0  0  0  0  0
   -1.2393   -3.8633   33.9638 H   0  0  0  0  0  0  0  0  0  0  0  0
   -1.3140   -5.5534   33.4927 H   0  0  0  0  0  0  0  0  0  0  0  0
    1.3314   -5.4390   33.3315 H   0  0  0  0  0  0  0  0  0  0  0  0
    1.4515   -2.9269   33.7594 H   0  0  0  0  0  0  0  0  0  0  0  0
    2.3846   -3.8547   34.9034 H   0  0  0  0  0  0  0  0  0  0  0  0
   -0.6382   -3.4139   37.2318 H   0  0  0  0  0  0  0  0  0  0  0  0
   -0.0483   -6.7937   34.9547 H   0  0  0  0  0  0  0  0  0  0  0  0
    1.4163   -6.7069   37.0579 H   0  0  0  0  0  0  0  0  0  0  0  0
    2.3990   -5.4652   36.2960 H   0  0  0  0  0  0  0  0  0  0  0  0
    3.5547   -7.2489   37.1675 H   0  0  0  0  0  0  0  0  0  0  0  0
    5.3856   -8.3314   35.4906 H   0  0  0  0  0  0  0  0  0  0  0  0
    4.2746   -9.6781   35.6981 H   0  0  0  0  0  0  0  0  0  0  0  0
    3.7183  -10.4466   38.1256 H   0  0  0  0  0  0  0  0  0  0  0  0
    4.7350  -10.9444   40.3206 H   0  0  0  0  0  0  0  0  0  0  0  0
    6.8780   -9.8798   40.9735 H   0  0  0  0  0  0  0  0  0  0  0  0
    8.0062   -8.3093   39.4213 H   0  0  0  0  0  0  0  0  0  0  0  0
    7.0071   -7.8002   37.2221 H   0  0  0  0  0  0  0  0  0  0  0  0
   -0.7748   -4.1409   29.7537 H   0  0  0  0  0  0  0  0  0  0  0  0
    1.0637   -2.8220   28.7523 H   0  0  0  0  0  0  0  0  0  0  0  0
   -0.3883   -3.1179   27.8534 H   0  0  0  0  0  0  0  0  0  0  0  0
    1.6302   -0.5066   29.4457 H   0  0  0  0  0  0  0  0  0  0  0  0
    1.3165    1.9176   28.9429 H   0  0  0  0  0  0  0  0  0  0  0  0
   -2.1503   -1.3784   27.5145 H   0  0  0  0  0  0  0  0  0  0  0  0
   -2.0520    2.9829   25.8832 H   0  0  0  0  0  0  0  0  0  0  0  0
   -2.8949    3.2334   27.4280 H   0  0  0  0  0  0  0  0  0  0  0  0
  1  2  1  0
  2  3  1  0
  3  4  2  0
  3  5  2  0
  5  6  1  0
  6  7  1  0
  7  8  1  0
  8  9  1  0
  9 10  2  0
  9 11  1  0
 11 12  1  0
 12 13  2  0
 12 14  1  0
 14 15  1  0
 15 16  1  0
 16 17  2  0
 16 18  1  0
 18 19  1  0
 19 20  1  0
 20 21  2  0
 21 22  1  0
 22 23  2  0
 23 24  1  0
 24 25  2  0
  3 26  1  0
 26 27  1  0
 27 28  1  0
 28 29  2  0
 29 30  1  0
 30 31  2  0
 31 32  1  0
 32 33  2  0
 32 34  1  0
 34 35  1  0
 35 36  1  0
 14  7  1  0
 25 20  1  0
 33 28  1  0
 36 31  1  0
  1 37  1  0
  1 38  1  0
  1 39  1  0
  2 40  1  0
  2 41  1  0
  6 42  1  0
  6 43  1  0
  7 44  1  0
  8 45  1  0
  8 46  1  0
 11 47  1  0
 14 48  1  0
 15 49  1  0
 15 50  1  0
 18 51  1  0
 19 52  1  0
 19 53  1  0
 21 54  1  0
 22 55  1  0
 23 56  1  0
 24 57  1  0
 25 58  1  0
 26 59  1  0
 27 60  1  0
 27 61  1  0
 29 62  1  0
 30 63  1  0
 33 64  1  0
 35 65  1  0
 35 66  1  0
M  END
>  <Energy>  (289) 
-161.47890250245112

>  <compound_id>  (289) 
1621

>  <target_id>  (289) 
1

>  <reference_id>  (289) 
13

>  <inspiration_ids>  (289) 
[13, 105]

>  <energy_score>  (289) 
-86.92062449669828

>  <distance_score>  (289) 
2.5695462156315885

>  <path>  (289) 
/opt/xchem-fragalysis-2/maxwin/BulkDock/SCRATCH/505732/C1621-P13/C1621-P13.minimised.mol

>  <scratch_subdir>  (289) 
/opt/xchem-fragalysis-2/maxwin/BulkDock/SCRATCH/505732/C1621-P13

>  <fragmenstein_runtime>  (289) 
13.112879514694214

>  <fragmenstein_outcome>  (289) 
too moved

>  <fragmenstein_mode>  (289) 
expansion

>  <fragmenstein_error>  (289) 


$$$$
C1621-P105
     RDKit          3D

 66 69  0  0  0  0  0  0  0  0999 V2000
   -1.8277   -0.9155   31.8320 C   0  0  0  0  0  0  0  0  0  0  0  0
   -1.5823   -2.3445   32.2750 C   0  0  0  0  0  0  0  0  0  0  0  0
   -0.1793   -3.1074   31.4814 S   0  0  0  0  0  0  0  0  0  0  0  0
    0.9871   -2.2831   31.6874 O   0  0  0  0  0  0  0  0  0  0  0  0
   -0.1987   -4.6356   31.6492 N   0  0  0  0  0  0  0  0  0  0  0  0
   -0.5013   -5.3370   32.8977 C   0  0  0  0  0  0  0  0  0  0  0  0
    0.6768   -5.4859   33.9031 C   0  0  0  0  0  0  0  0  0  0  0  0
    0.8863   -4.2050   34.7146 C   0  0  0  0  0  0  0  0  0  0  0  0
   -0.2735   -3.9422   35.6540 C   0  0  0  0  0  0  0  0  0  0  0  0
   -0.6263   -2.8051   35.9529 O   0  0  0  0  0  0  0  0  0  0  0  0
   -0.9314   -5.0349   36.1629 N   0  0  0  0  0  0  0  0  0  0  0  0
   -0.9398   -6.2753   35.5742 C   0  0  0  0  0  0  0  0  0  0  0  0
   -1.9304   -6.9962   35.5622 O   0  0  0  0  0  0  0  0  0  0  0  0
    0.3505   -6.6493   34.8853 C   0  0  0  0  0  0  0  0  0  0  0  0
    1.3604   -6.9596   36.0145 C   0  0  0  0  0  0  0  0  0  0  0  0
    2.5170   -7.8539   35.5919 C   0  0  0  0  0  0  0  0  0  0  0  0
    2.7166   -8.0577   34.4328 O   0  0  0  0  0  0  0  0  0  0  0  0
    3.2046   -8.3220   36.7534 N   0  0  0  0  0  0  0  0  0  0  0  0
    4.4041   -9.1048   36.8888 C   0  0  0  0  0  0  0  0  0  0  0  0
    5.5803   -8.2138   37.1795 C   0  0  0  0  0  0  0  0  0  0  0  0
    6.0712   -8.0792   38.4855 C   0  0  0  0  0  0  0  0  0  0  0  0
    7.1458   -7.2294   38.7520 C   0  0  0  0  0  0  0  0  0  0  0  0
    7.7352   -6.5025   37.7190 C   0  0  0  0  0  0  0  0  0  0  0  0
    7.2515   -6.6234   36.4180 C   0  0  0  0  0  0  0  0  0  0  0  0
    6.1782   -7.4731   36.1488 C   0  0  0  0  0  0  0  0  0  0  0  0
   -0.4942   -3.0748   29.8327 N   0  0  0  0  0  0  0  0  0  0  0  0
    0.3749   -2.4005   28.8889 C   0  0  0  0  0  0  0  0  0  0  0  0
   -0.0105   -0.9649   28.6262 C   0  0  0  0  0  0  0  0  0  0  0  0
    0.7922    0.0913   29.1117 C   0  0  0  0  0  0  0  0  0  0  0  0
    0.5017    1.4218   28.7910 C   0  0  0  0  0  0  0  0  0  0  0  0
   -0.5927    1.6670   27.9901 C   0  0  0  0  0  0  0  0  0  0  0  0
   -1.3989    0.6524   27.5364 C   0  0  0  0  0  0  0  0  0  0  0  0
   -1.1436   -0.6674   27.8457 C   0  0  0  0  0  0  0  0  0  0  0  0
   -2.4141    1.1097   26.7556 O   0  0  0  0  0  0  0  0  0  0  0  0
   -2.1581    2.5285   26.7720 C   0  0  0  0  0  0  0  0  0  0  0  0
   -0.9988    2.8889   27.5533 O   0  0  0  0  0  0  0  0  0  0  0  0
   -2.1175   -0.8717   30.7790 H   0  0  0  0  0  0  0  0  0  0  0  0
   -0.9373   -0.2948   31.9687 H   0  0  0  0  0  0  0  0  0  0  0  0
   -2.6418   -0.4754   32.4162 H   0  0  0  0  0  0  0  0  0  0  0  0
   -2.4625   -2.9563   32.0612 H   0  0  0  0  0  0  0  0  0  0  0  0
   -1.3900   -2.3691   33.3501 H   0  0  0  0  0  0  0  0  0  0  0  0
   -1.3707   -4.8772   33.3665 H   0  0  0  0  0  0  0  0  0  0  0  0
   -0.8195   -6.3438   32.5960 H   0  0  0  0  0  0  0  0  0  0  0  0
    1.5974   -5.7209   33.3554 H   0  0  0  0  0  0  0  0  0  0  0  0
    0.9989   -3.3397   34.0591 H   0  0  0  0  0  0  0  0  0  0  0  0
    1.8026   -4.2544   35.3114 H   0  0  0  0  0  0  0  0  0  0  0  0
   -1.7913   -4.7792   36.6299 H   0  0  0  0  0  0  0  0  0  0  0  0
    0.1624   -7.5612   34.3054 H   0  0  0  0  0  0  0  0  0  0  0  0
    1.7802   -6.0531   36.4605 H   0  0  0  0  0  0  0  0  0  0  0  0
    0.8289   -7.4880   36.8194 H   0  0  0  0  0  0  0  0  0  0  0  0
    2.8079   -7.8781   37.5733 H   0  0  0  0  0  0  0  0  0  0  0  0
    4.5726   -9.6621   35.9608 H   0  0  0  0  0  0  0  0  0  0  0  0
    4.2446   -9.8280   37.6953 H   0  0  0  0  0  0  0  0  0  0  0  0
    5.6222   -8.6368   39.3045 H   0  0  0  0  0  0  0  0  0  0  0  0
    7.5238   -7.1332   39.7664 H   0  0  0  0  0  0  0  0  0  0  0  0
    8.5715   -5.8408   37.9285 H   0  0  0  0  0  0  0  0  0  0  0  0
    7.7093   -6.0543   35.6130 H   0  0  0  0  0  0  0  0  0  0  0  0
    5.8050   -7.5546   35.1299 H   0  0  0  0  0  0  0  0  0  0  0  0
   -0.4920   -4.0622   29.5956 H   0  0  0  0  0  0  0  0  0  0  0  0
    1.4297   -2.4825   29.1775 H   0  0  0  0  0  0  0  0  0  0  0  0
    0.3117   -2.9314   27.9345 H   0  0  0  0  0  0  0  0  0  0  0  0
    1.6600   -0.1282   29.7316 H   0  0  0  0  0  0  0  0  0  0  0  0
    1.1231    2.2348   29.1482 H   0  0  0  0  0  0  0  0  0  0  0  0
   -1.7806   -1.4545   27.4502 H   0  0  0  0  0  0  0  0  0  0  0  0
   -1.9988    2.8635   25.7404 H   0  0  0  0  0  0  0  0  0  0  0  0
   -3.0334    3.0472   27.1721 H   0  0  0  0  0  0  0  0  0  0  0  0
  1  2  1  0
  2  3  1  0
  3  4  2  0
  3  5  2  0
  5  6  1  0
  6  7  1  0
  7  8  1  0
  8  9  1  0
  9 10  2  0
  9 11  1  0
 11 12  1  0
 12 13  2  0
 12 14  1  0
 14 15  1  0
 15 16  1  0
 16 17  2  0
 16 18  1  0
 18 19  1  0
 19 20  1  0
 20 21  2  0
 21 22  1  0
 22 23  2  0
 23 24  1  0
 24 25  2  0
  3 26  1  0
 26 27  1  0
 27 28  1  0
 28 29  2  0
 29 30  1  0
 30 31  2  0
 31 32  1  0
 32 33  2  0
 32 34  1  0
 34 35  1  0
 35 36  1  0
 14  7  1  0
 25 20  1  0
 33 28  1  0
 36 31  1  0
  1 37  1  0
  1 38  1  0
  1 39  1  0
  2 40  1  0
  2 41  1  0
  6 42  1  0
  6 43  1  0
  7 44  1  0
  8 45  1  0
  8 46  1  0
 11 47  1  0
 14 48  1  0
 15 49  1  0
 15 50  1  0
 18 51  1  0
 19 52  1  0
 19 53  1  0
 21 54  1  0
 22 55  1  0
 23 56  1  0
 24 57  1  0
 25 58  1  0
 26 59  1  0
 27 60  1  0
 27 61  1  0
 29 62  1  0
 30 63  1  0
 33 64  1  0
 35 65  1  0
 35 66  1  0
M  END
>  <Energy>  (290) 
-158.87870375321793

>  <compound_id>  (290) 
1621

>  <target_id>  (290) 
1

>  <reference_id>  (290) 
105

>  <inspiration_ids>  (290) 
[13, 105]

>  <energy_score>  (290) 
-84.3204257474629

>  <distance_score>  (290) 
2.3865994338942396

>  <path>  (290) 
/opt/xchem-fragalysis-2/maxwin/BulkDock/SCRATCH/505732/C1621-P105/C1621-P105.minimised.mol

>  <scratch_subdir>  (290) 
/opt/xchem-fragalysis-2/maxwin/BulkDock/SCRATCH/505732/C1621-P105

>  <fragmenstein_runtime>  (290) 
17.796106100082397

>  <fragmenstein_outcome>  (290) 
too moved

>  <fragmenstein_mode>  (290) 
expansion

>  <fragmenstein_error>  (290) 


$$$$
C1622-P13
     RDKit          3D

 67 72  0  0  0  0  0  0  0  0999 V2000
   -0.6602   -0.2217   33.5720 C   0  0  0  0  0  0  0  0  0  0  0  0
   -0.9463   -1.6802   33.2752 C   0  0  0  0  0  0  0  0  0  0  0  0
   -2.2688   -1.9038   32.1092 S   0  0  0  0  0  0  0  0  0  0  0  0
   -2.3111   -3.2921   31.7013 O   0  0  0  0  0  0  0  0  0  0  0  0
   -3.4863   -1.0617   32.5176 N   0  0  0  0  0  0  0  0  0  0  0  0
   -4.6465   -1.7183   33.1317 C   0  0  0  0  0  0  0  0  0  0  0  0
   -4.9502   -1.1017   34.4717 C   0  0  0  0  0  0  0  0  0  0  0  0
   -4.0826   -1.4638   35.5959 C   0  0  0  0  0  0  0  0  0  0  0  0
   -4.3150   -0.9407   36.8128 C   0  0  0  0  0  0  0  0  0  0  0  0
   -3.4098   -1.4080   37.8166 N   0  0  0  0  0  0  0  0  0  0  0  0
   -3.8557   -1.8585   39.1643 C   0  0  0  0  0  0  0  0  0  0  0  0
   -2.9774   -1.1742   40.2161 C   0  0  0  0  0  0  0  0  0  0  0  0
   -1.5949   -1.0286   39.5785 C   0  0  0  0  0  0  0  0  0  0  0  0
   -0.5913   -0.1317   40.2573 C   0  0  0  0  0  0  0  0  0  0  0  0
   -0.9424    1.0827   40.8661 C   0  0  0  0  0  0  0  0  0  0  0  0
    0.0254    1.8800   41.4821 C   0  0  0  0  0  0  0  0  0  0  0  0
    1.3581    1.4787   41.4975 C   0  0  0  0  0  0  0  0  0  0  0  0
    1.7266    0.2817   40.8915 C   0  0  0  0  0  0  0  0  0  0  0  0
    0.7609   -0.5159   40.2744 C   0  0  0  0  0  0  0  0  0  0  0  0
   -1.9905   -0.4069   37.9411 S   0  0  0  0  0  0  0  0  0  0  0  0
   -1.0392   -0.8714   36.9563 O   0  0  0  0  0  0  0  0  0  0  0  0
   -2.4488    0.9646   38.0142 O   0  0  0  0  0  0  0  0  0  0  0  0
   -5.3886   -0.0656   36.9817 N   0  0  0  0  0  0  0  0  0  0  0  0
   -5.8445    0.6443   38.0570 C   0  0  0  0  0  0  0  0  0  0  0  0
   -6.9698    1.2531   37.7605 N   0  0  0  0  0  0  0  0  0  0  0  0
   -7.2385    1.0060   36.4337 N   0  0  0  0  0  0  0  0  0  0  0  0
   -6.2692    0.2536   35.9576 C   0  0  0  0  0  0  0  0  0  0  0  0
   -6.0077   -0.2792   34.6661 C   0  0  0  0  0  0  0  0  0  0  0  0
   -1.8292   -1.0689   30.7399 N   0  0  0  0  0  0  0  0  0  0  0  0
   -1.0123   -1.5864   29.6629 C   0  0  0  0  0  0  0  0  0  0  0  0
   -0.7860   -0.4427   28.6987 C   0  0  0  0  0  0  0  0  0  0  0  0
    0.2383    0.5053   28.9296 C   0  0  0  0  0  0  0  0  0  0  0  0
    0.2916    1.6963   28.1972 C   0  0  0  0  0  0  0  0  0  0  0  0
   -0.7063    1.9251   27.2750 C   0  0  0  0  0  0  0  0  0  0  0  0
   -1.6900    0.9984   27.0290 C   0  0  0  0  0  0  0  0  0  0  0  0
   -1.7335   -0.2070   27.6915 C   0  0  0  0  0  0  0  0  0  0  0  0
   -2.5948    1.4344   26.1130 O   0  0  0  0  0  0  0  0  0  0  0  0
   -2.1569    2.7957   25.9343 C   0  0  0  0  0  0  0  0  0  0  0  0
   -0.8642    3.0525   26.5295 O   0  0  0  0  0  0  0  0  0  0  0  0
   -1.5280    0.2748   34.0173 H   0  0  0  0  0  0  0  0  0  0  0  0
    0.1719   -0.1386   34.2781 H   0  0  0  0  0  0  0  0  0  0  0  0
   -0.3862    0.3280   32.6663 H   0  0  0  0  0  0  0  0  0  0  0  0
   -0.0596   -2.1634   32.8523 H   0  0  0  0  0  0  0  0  0  0  0  0
   -1.2194   -2.2201   34.1858 H   0  0  0  0  0  0  0  0  0  0  0  0
   -4.5293   -2.7963   33.2122 H   0  0  0  0  0  0  0  0  0  0  0  0
   -5.5169   -1.5867   32.4833 H   0  0  0  0  0  0  0  0  0  0  0  0
   -3.2642   -2.1537   35.4143 H   0  0  0  0  0  0  0  0  0  0  0  0
   -3.6977   -2.9413   39.2123 H   0  0  0  0  0  0  0  0  0  0  0  0
   -4.9149   -1.6688   39.3524 H   0  0  0  0  0  0  0  0  0  0  0  0
   -2.9412   -1.7497   41.1468 H   0  0  0  0  0  0  0  0  0  0  0  0
   -3.4181   -0.1998   40.4552 H   0  0  0  0  0  0  0  0  0  0  0  0
   -1.1657   -2.0286   39.4320 H   0  0  0  0  0  0  0  0  0  0  0  0
   -1.9675    1.4461   40.8545 H   0  0  0  0  0  0  0  0  0  0  0  0
   -0.2616    2.8226   41.9422 H   0  0  0  0  0  0  0  0  0  0  0  0
    2.1097    2.1033   41.9731 H   0  0  0  0  0  0  0  0  0  0  0  0
    2.7684   -0.0294   40.8938 H   0  0  0  0  0  0  0  0  0  0  0  0
    1.0812   -1.4428   39.8008 H   0  0  0  0  0  0  0  0  0  0  0  0
   -5.3365    0.6876   39.0072 H   0  0  0  0  0  0  0  0  0  0  0  0
   -6.6762    0.0078   33.8587 H   0  0  0  0  0  0  0  0  0  0  0  0
   -2.6813   -0.6643   30.3715 H   0  0  0  0  0  0  0  0  0  0  0  0
   -0.0494   -1.9493   30.0392 H   0  0  0  0  0  0  0  0  0  0  0  0
   -1.5032   -2.4236   29.1547 H   0  0  0  0  0  0  0  0  0  0  0  0
    0.9618    0.3395   29.7244 H   0  0  0  0  0  0  0  0  0  0  0  0
    1.0529    2.4432   28.3890 H   0  0  0  0  0  0  0  0  0  0  0  0
   -2.5180   -0.9243   27.4771 H   0  0  0  0  0  0  0  0  0  0  0  0
   -2.0907    3.0018   24.8604 H   0  0  0  0  0  0  0  0  0  0  0  0
   -2.8963    3.4719   26.3800 H   0  0  0  0  0  0  0  0  0  0  0  0
  1  2  1  0
  2  3  1  0
  3  4  2  0
  3  5  2  0
  5  6  1  0
  6  7  1  0
  7  8  1  0
  8  9  2  0
  9 10  1  0
 10 11  1  0
 11 12  1  0
 12 13  1  0
 13 14  1  0
 14 15  2  0
 15 16  1  0
 16 17  2  0
 17 18  1  0
 18 19  2  0
 13 20  1  0
 20 21  2  0
 20 22  2  0
  9 23  1  0
 23 24  1  0
 24 25  2  0
 25 26  1  0
 26 27  2  0
 27 28  1  0
  3 29  1  0
 29 30  1  0
 30 31  1  0
 31 32  2  0
 32 33  1  0
 33 34  2  0
 34 35  1  0
 35 36  2  0
 35 37  1  0
 37 38  1  0
 38 39  1  0
 28  7  2  0
 36 31  1  0
 20 10  1  0
 27 23  1  0
 39 34  1  0
 19 14  1  0
  1 40  1  0
  1 41  1  0
  1 42  1  0
  2 43  1  0
  2 44  1  0
  6 45  1  0
  6 46  1  0
  8 47  1  0
 11 48  1  0
 11 49  1  0
 12 50  1  0
 12 51  1  0
 13 52  1  0
 15 53  1  0
 16 54  1  0
 17 55  1  0
 18 56  1  0
 19 57  1  0
 24 58  1  0
 28 59  1  0
 29 60  1  0
 30 61  1  0
 30 62  1  0
 32 63  1  0
 33 64  1  0
 36 65  1  0
 38 66  1  0
 38 67  1  0
M  END
>  <Energy>  (291) 
-46.224660748893413

>  <compound_id>  (291) 
1622

>  <target_id>  (291) 
1

>  <reference_id>  (291) 
13

>  <inspiration_ids>  (291) 
[13, 121]

>  <energy_score>  (291) 
-104.9790853790829

>  <distance_score>  (291) 
1.7445990107821971

>  <path>  (291) 
/opt/xchem-fragalysis-2/maxwin/BulkDock/SCRATCH/505732/C1622-P13/C1622-P13.minimised.mol

>  <scratch_subdir>  (291) 
/opt/xchem-fragalysis-2/maxwin/BulkDock/SCRATCH/505732/C1622-P13

>  <fragmenstein_runtime>  (291) 
10.692365169525146

>  <fragmenstein_outcome>  (291) 
too moved

>  <fragmenstein_mode>  (291) 
expansion

>  <fragmenstein_error>  (291) 


$$$$
C1622-P121
     RDKit          3D

 67 72  0  0  0  0  0  0  0  0999 V2000
   -1.0082    0.5794   31.7963 C   0  0  0  0  0  0  0  0  0  0  0  0
   -0.0096   -0.5495   31.9311 C   0  0  0  0  0  0  0  0  0  0  0  0
   -0.7156   -2.1621   31.6725 S   0  0  0  0  0  0  0  0  0  0  0  0
    0.3345   -3.1431   31.8333 O   0  0  0  0  0  0  0  0  0  0  0  0
   -2.0749   -2.2513   32.3889 N   0  0  0  0  0  0  0  0  0  0  0  0
   -2.0069   -2.2552   33.8617 C   0  0  0  0  0  0  0  0  0  0  0  0
   -3.3188   -1.8963   34.5279 C   0  0  0  0  0  0  0  0  0  0  0  0
   -3.1833   -1.4246   35.9153 C   0  0  0  0  0  0  0  0  0  0  0  0
   -4.2699   -1.0291   36.6001 C   0  0  0  0  0  0  0  0  0  0  0  0
   -3.9772   -0.6350   37.9393 N   0  0  0  0  0  0  0  0  0  0  0  0
   -4.6762   -1.2102   39.1188 C   0  0  0  0  0  0  0  0  0  0  0  0
   -4.9963   -0.0651   40.0879 C   0  0  0  0  0  0  0  0  0  0  0  0
   -3.8943    0.9845   39.9062 C   0  0  0  0  0  0  0  0  0  0  0  0
   -4.0873    2.3651   40.4832 C   0  0  0  0  0  0  0  0  0  0  0  0
   -5.3191    2.8326   40.9639 C   0  0  0  0  0  0  0  0  0  0  0  0
   -5.4380    4.1208   41.4935 C   0  0  0  0  0  0  0  0  0  0  0  0
   -4.3298    4.9609   41.5532 C   0  0  0  0  0  0  0  0  0  0  0  0
   -3.0992    4.5150   41.0829 C   0  0  0  0  0  0  0  0  0  0  0  0
   -2.9784    3.2288   40.5541 C   0  0  0  0  0  0  0  0  0  0  0  0
   -3.7796    1.0782   38.1130 S   0  0  0  0  0  0  0  0  0  0  0  0
   -2.4418    1.4087   37.6752 O   0  0  0  0  0  0  0  0  0  0  0  0
   -4.9653    1.6995   37.5630 O   0  0  0  0  0  0  0  0  0  0  0  0
   -5.5211   -1.1090   35.9945 N   0  0  0  0  0  0  0  0  0  0  0  0
   -6.7797   -0.8067   36.4319 C   0  0  0  0  0  0  0  0  0  0  0  0
   -7.6721   -1.2556   35.5793 N   0  0  0  0  0  0  0  0  0  0  0  0
   -6.9929   -1.7562   34.4893 N   0  0  0  0  0  0  0  0  0  0  0  0
   -5.7042   -1.6238   34.7182 C   0  0  0  0  0  0  0  0  0  0  0  0
   -4.5471   -1.9699   33.9629 C   0  0  0  0  0  0  0  0  0  0  0  0
   -1.1485   -2.3236   30.0602 N   0  0  0  0  0  0  0  0  0  0  0  0
   -0.1828   -2.0875   28.9947 C   0  0  0  0  0  0  0  0  0  0  0  0
   -0.2285   -0.6627   28.4900 C   0  0  0  0  0  0  0  0  0  0  0  0
    0.9243    0.1534   28.4836 C   0  0  0  0  0  0  0  0  0  0  0  0
    0.8719    1.4730   28.0148 C   0  0  0  0  0  0  0  0  0  0  0  0
   -0.3337    1.9425   27.5404 C   0  0  0  0  0  0  0  0  0  0  0  0
   -1.4521    1.1495   27.5131 C   0  0  0  0  0  0  0  0  0  0  0  0
   -1.4312   -0.1459   27.9808 C   0  0  0  0  0  0  0  0  0  0  0  0
   -2.5205    1.7779   26.9569 O   0  0  0  0  0  0  0  0  0  0  0  0
   -1.9868    3.1034   26.7603 C   0  0  0  0  0  0  0  0  0  0  0  0
   -0.5673    3.1798   27.0274 O   0  0  0  0  0  0  0  0  0  0  0  0
   -1.7496    0.5538   32.6009 H   0  0  0  0  0  0  0  0  0  0  0  0
   -0.4887    1.5403   31.8549 H   0  0  0  0  0  0  0  0  0  0  0  0
   -1.5497    0.5382   30.8490 H   0  0  0  0  0  0  0  0  0  0  0  0
    0.8202   -0.4334   31.2313 H   0  0  0  0  0  0  0  0  0  0  0  0
    0.4272   -0.5469   32.9352 H   0  0  0  0  0  0  0  0  0  0  0  0
   -1.2643   -1.5155   34.1880 H   0  0  0  0  0  0  0  0  0  0  0  0
   -1.6503   -3.2270   34.2157 H   0  0  0  0  0  0  0  0  0  0  0  0
   -2.1930   -1.3967   36.3632 H   0  0  0  0  0  0  0  0  0  0  0  0
   -3.9895   -1.9175   39.5977 H   0  0  0  0  0  0  0  0  0  0  0  0
   -5.5867   -1.7514   38.8507 H   0  0  0  0  0  0  0  0  0  0  0  0
   -5.0642   -0.4180   41.1221 H   0  0  0  0  0  0  0  0  0  0  0  0
   -5.9790    0.3392   39.8164 H   0  0  0  0  0  0  0  0  0  0  0  0
   -2.9429    0.5711   40.2660 H   0  0  0  0  0  0  0  0  0  0  0  0
   -6.2142    2.2175   40.9347 H   0  0  0  0  0  0  0  0  0  0  0  0
   -6.4012    4.4706   41.8574 H   0  0  0  0  0  0  0  0  0  0  0  0
   -4.4262    5.9631   41.9626 H   0  0  0  0  0  0  0  0  0  0  0  0
   -2.2318    5.1693   41.1241 H   0  0  0  0  0  0  0  0  0  0  0  0
   -2.0021    2.9089   40.1901 H   0  0  0  0  0  0  0  0  0  0  0  0
   -6.9867   -0.2926   37.3577 H   0  0  0  0  0  0  0  0  0  0  0  0
   -4.6832   -2.3094   32.9409 H   0  0  0  0  0  0  0  0  0  0  0  0
   -1.4959   -3.2690   29.9707 H   0  0  0  0  0  0  0  0  0  0  0  0
    0.8309   -2.3613   29.3094 H   0  0  0  0  0  0  0  0  0  0  0  0
   -0.4202   -2.7485   28.1564 H   0  0  0  0  0  0  0  0  0  0  0  0
    1.8756   -0.2418   28.8344 H   0  0  0  0  0  0  0  0  0  0  0  0
    1.7560    2.1006   28.0046 H   0  0  0  0  0  0  0  0  0  0  0  0
   -2.3214   -0.7635   27.9344 H   0  0  0  0  0  0  0  0  0  0  0  0
   -2.1601    3.3970   25.7190 H   0  0  0  0  0  0  0  0  0  0  0  0
   -2.5088    3.8076   27.4173 H   0  0  0  0  0  0  0  0  0  0  0  0
  1  2  1  0
  2  3  1  0
  3  4  2  0
  3  5  2  0
  5  6  1  0
  6  7  1  0
  7  8  1  0
  8  9  2  0
  9 10  1  0
 10 11  1  0
 11 12  1  0
 12 13  1  0
 13 14  1  0
 14 15  2  0
 15 16  1  0
 16 17  2  0
 17 18  1  0
 18 19  2  0
 13 20  1  0
 20 21  2  0
 20 22  2  0
  9 23  1  0
 23 24  1  0
 24 25  2  0
 25 26  1  0
 26 27  2  0
 27 28  1  0
  3 29  1  0
 29 30  1  0
 30 31  1  0
 31 32  2  0
 32 33  1  0
 33 34  2  0
 34 35  1  0
 35 36  2  0
 35 37  1  0
 37 38  1  0
 38 39  1  0
 28  7  2  0
 36 31  1  0
 20 10  1  0
 27 23  1  0
 39 34  1  0
 19 14  1  0
  1 40  1  0
  1 41  1  0
  1 42  1  0
  2 43  1  0
  2 44  1  0
  6 45  1  0
  6 46  1  0
  8 47  1  0
 11 48  1  0
 11 49  1  0
 12 50  1  0
 12 51  1  0
 13 52  1  0
 15 53  1  0
 16 54  1  0
 17 55  1  0
 18 56  1  0
 19 57  1  0
 24 58  1  0
 28 59  1  0
 29 60  1  0
 30 61  1  0
 30 62  1  0
 32 63  1  0
 33 64  1  0
 36 65  1  0
 38 66  1  0
 38 67  1  0
M  END
>  <Energy>  (292) 
-43.926248912063329

>  <compound_id>  (292) 
1622

>  <target_id>  (292) 
1

>  <reference_id>  (292) 
121

>  <inspiration_ids>  (292) 
[13, 121]

>  <energy_score>  (292) 
-102.68067354225315

>  <distance_score>  (292) 
1.1647927122469661

>  <path>  (292) 
/opt/xchem-fragalysis-2/maxwin/BulkDock/SCRATCH/505732/C1622-P121/C1622-P121.minimised.mol

>  <scratch_subdir>  (292) 
/opt/xchem-fragalysis-2/maxwin/BulkDock/SCRATCH/505732/C1622-P121

>  <fragmenstein_runtime>  (292) 
13.240411520004272

>  <fragmenstein_outcome>  (292) 
too moved

>  <fragmenstein_mode>  (292) 
expansion

>  <fragmenstein_error>  (292) 


$$$$
C1623-P13
     RDKit          3D

 64 69  0  0  0  0  0  0  0  0999 V2000
   -1.1243    0.2317   31.1223 C   0  0  0  0  0  0  0  0  0  0  0  0
   -0.0944   -0.8200   31.4282 C   0  0  0  0  0  0  0  0  0  0  0  0
   -0.7414   -2.4700   31.4748 S   0  0  0  0  0  0  0  0  0  0  0  0
    0.3782   -3.3477   31.7287 O   0  0  0  0  0  0  0  0  0  0  0  0
   -2.0479   -2.4734   32.3014 N   0  0  0  0  0  0  0  0  0  0  0  0
   -2.0710   -1.7520   33.6114 C   0  0  0  0  0  0  0  0  0  0  0  0
   -0.9035   -1.7027   34.5071 C   0  0  0  0  0  0  0  0  0  0  0  0
   -0.7151   -0.6563   35.3430 C   0  0  0  0  0  0  0  0  0  0  0  0
    0.5966   -0.3805   35.9675 N   0  0  0  0  0  0  0  0  0  0  0  0
    1.4089    0.7610   35.3369 C   0  0  0  0  0  0  0  0  0  0  0  0
    2.6673    0.1688   34.6592 C   0  0  0  0  0  0  0  0  0  0  0  0
    2.3812   -1.3224   34.5295 C   0  0  0  0  0  0  0  0  0  0  0  0
    3.3286   -2.2828   33.8967 C   0  0  0  0  0  0  0  0  0  0  0  0
    4.4229   -1.7999   33.1703 C   0  0  0  0  0  0  0  0  0  0  0  0
    4.9909   -2.5862   32.1783 C   0  0  0  0  0  0  0  0  0  0  0  0
    4.4978   -3.8640   31.9265 C   0  0  0  0  0  0  0  0  0  0  0  0
    3.4704   -4.3868   32.6991 C   0  0  0  0  0  0  0  0  0  0  0  0
    2.8975   -3.6064   33.6904 C   0  0  0  0  0  0  0  0  0  0  0  0
    1.7418   -1.7290   36.1391 S   0  0  0  0  0  0  0  0  0  0  0  0
    1.0183   -2.9750   36.2084 O   0  0  0  0  0  0  0  0  0  0  0  0
    2.6967   -1.3393   37.1551 O   0  0  0  0  0  0  0  0  0  0  0  0
   -1.7871    0.2374   35.4814 N   0  0  0  0  0  0  0  0  0  0  0  0
   -1.9370    1.3639   36.2419 C   0  0  0  0  0  0  0  0  0  0  0  0
   -3.0983    1.9280   35.9921 N   0  0  0  0  0  0  0  0  0  0  0  0
   -3.7585    1.1487   35.0684 N   0  0  0  0  0  0  0  0  0  0  0  0
   -2.9862    0.1215   34.7835 C   0  0  0  0  0  0  0  0  0  0  0  0
   -3.1082   -0.9172   33.8199 C   0  0  0  0  0  0  0  0  0  0  0  0
   -1.2196   -2.8807   29.9255 N   0  0  0  0  0  0  0  0  0  0  0  0
   -0.3784   -2.6397   28.7575 C   0  0  0  0  0  0  0  0  0  0  0  0
   -0.4650   -1.2272   28.2111 C   0  0  0  0  0  0  0  0  0  0  0  0
    0.6657   -0.3740   28.1934 C   0  0  0  0  0  0  0  0  0  0  0  0
    0.5668    0.9561   27.7635 C   0  0  0  0  0  0  0  0  0  0  0  0
   -0.6588    1.3971   27.3157 C   0  0  0  0  0  0  0  0  0  0  0  0
   -1.7474    0.5641   27.2694 C   0  0  0  0  0  0  0  0  0  0  0  0
   -1.6829   -0.7449   27.7028 C   0  0  0  0  0  0  0  0  0  0  0  0
   -2.8436    1.1787   26.7539 O   0  0  0  0  0  0  0  0  0  0  0  0
   -2.3487    2.5141   26.5490 C   0  0  0  0  0  0  0  0  0  0  0  0
   -0.9381    2.6431   26.8477 O   0  0  0  0  0  0  0  0  0  0  0  0
   -1.8783   -0.0830   30.4002 H   0  0  0  0  0  0  0  0  0  0  0  0
   -0.6131    1.1218   30.7463 H   0  0  0  0  0  0  0  0  0  0  0  0
   -1.6449    0.5235   32.0333 H   0  0  0  0  0  0  0  0  0  0  0  0
    0.3634   -0.5931   32.3881 H   0  0  0  0  0  0  0  0  0  0  0  0
    0.7327   -0.8150   30.7200 H   0  0  0  0  0  0  0  0  0  0  0  0
   -0.2079   -2.5100   34.3274 H   0  0  0  0  0  0  0  0  0  0  0  0
    1.6846    1.4742   36.1202 H   0  0  0  0  0  0  0  0  0  0  0  0
    0.8030    1.2853   34.5895 H   0  0  0  0  0  0  0  0  0  0  0  0
    3.5523    0.3546   35.2796 H   0  0  0  0  0  0  0  0  0  0  0  0
    2.8431    0.6506   33.6913 H   0  0  0  0  0  0  0  0  0  0  0  0
    1.5389   -1.3895   33.8427 H   0  0  0  0  0  0  0  0  0  0  0  0
    4.7881   -0.7839   33.2933 H   0  0  0  0  0  0  0  0  0  0  0  0
    5.8137   -2.2004   31.5811 H   0  0  0  0  0  0  0  0  0  0  0  0
    4.9378   -4.4656   31.1351 H   0  0  0  0  0  0  0  0  0  0  0  0
    3.0828   -5.3822   32.5025 H   0  0  0  0  0  0  0  0  0  0  0  0
    2.0254   -4.0143   34.1985 H   0  0  0  0  0  0  0  0  0  0  0  0
   -1.1893    1.7156   36.9383 H   0  0  0  0  0  0  0  0  0  0  0  0
   -3.9632   -0.9137   33.1536 H   0  0  0  0  0  0  0  0  0  0  0  0
   -2.1642   -2.5588   29.7579 H   0  0  0  0  0  0  0  0  0  0  0  0
    0.6632   -2.8967   28.9843 H   0  0  0  0  0  0  0  0  0  0  0  0
   -0.6814   -3.3331   27.9706 H   0  0  0  0  0  0  0  0  0  0  0  0
    1.6316   -0.7460   28.5296 H   0  0  0  0  0  0  0  0  0  0  0  0
    1.4262    1.6160   27.7674 H   0  0  0  0  0  0  0  0  0  0  0  0
   -2.5529   -1.3890   27.6236 H   0  0  0  0  0  0  0  0  0  0  0  0
   -2.5085    2.7909   25.5008 H   0  0  0  0  0  0  0  0  0  0  0  0
   -2.9071    3.2077   27.1868 H   0  0  0  0  0  0  0  0  0  0  0  0
  1  2  1  0
  2  3  1  0
  3  4  2  0
  3  5  2  0
  5  6  1  0
  6  7  1  0
  7  8  2  0
  8  9  1  0
  9 10  1  0
 10 11  1  0
 11 12  1  0
 12 13  1  0
 13 14  2  0
 14 15  1  0
 15 16  2  0
 16 17  1  0
 17 18  2  0
 12 19  1  0
 19 20  2  0
 19 21  2  0
  8 22  1  0
 22 23  1  0
 23 24  2  0
 24 25  1  0
 25 26  2  0
 26 27  1  0
  3 28  1  0
 28 29  1  0
 29 30  1  0
 30 31  2  0
 31 32  1  0
 32 33  2  0
 33 34  1  0
 34 35  2  0
 34 36  1  0
 36 37  1  0
 37 38  1  0
 27  6  2  0
 35 30  1  0
 19  9  1  0
 26 22  1  0
 38 33  1  0
 18 13  1  0
  1 39  1  0
  1 40  1  0
  1 41  1  0
  2 42  1  0
  2 43  1  0
  7 44  1  0
 10 45  1  0
 10 46  1  0
 11 47  1  0
 11 48  1  0
 12 49  1  0
 14 50  1  0
 15 51  1  0
 16 52  1  0
 17 53  1  0
 18 54  1  0
 23 55  1  0
 27 56  1  0
 28 57  1  0
 29 58  1  0
 29 59  1  0
 31 60  1  0
 32 61  1  0
 35 62  1  0
 37 63  1  0
 37 64  1  0
M  END
>  <Energy>  (293) 
-3.9011143935451185

>  <compound_id>  (293) 
1623

>  <target_id>  (293) 
1

>  <reference_id>  (293) 
13

>  <inspiration_ids>  (293) 
[13, 128]

>  <energy_score>  (293) 
-54.37116016295113

>  <distance_score>  (293) 
1.6453983134497157

>  <path>  (293) 
/opt/xchem-fragalysis-2/maxwin/BulkDock/SCRATCH/505732/C1623-P13/C1623-P13.minimised.mol

>  <scratch_subdir>  (293) 
/opt/xchem-fragalysis-2/maxwin/BulkDock/SCRATCH/505732/C1623-P13

>  <fragmenstein_runtime>  (293) 
4.109838962554932

>  <fragmenstein_outcome>  (293) 
too moved

>  <fragmenstein_mode>  (293) 
expansion

>  <fragmenstein_error>  (293) 


$$$$
C1623-P128
     RDKit          3D

 64 69  0  0  0  0  0  0  0  0999 V2000
   -1.1778    0.2720   31.1687 C   0  0  0  0  0  0  0  0  0  0  0  0
   -0.1201   -0.7285   31.5499 C   0  0  0  0  0  0  0  0  0  0  0  0
   -0.7137   -2.3991   31.6107 S   0  0  0  0  0  0  0  0  0  0  0  0
    0.4252   -3.2422   31.8905 O   0  0  0  0  0  0  0  0  0  0  0  0
   -2.0273   -2.4187   32.4284 N   0  0  0  0  0  0  0  0  0  0  0  0
   -2.0431   -1.6961   33.7441 C   0  0  0  0  0  0  0  0  0  0  0  0
   -0.8703   -1.6600   34.6375 C   0  0  0  0  0  0  0  0  0  0  0  0
   -0.6639   -0.6116   35.4670 C   0  0  0  0  0  0  0  0  0  0  0  0
    0.6563   -0.3385   36.0747 N   0  0  0  0  0  0  0  0  0  0  0  0
    1.4481    0.8200   35.4475 C   0  0  0  0  0  0  0  0  0  0  0  0
    2.6910    0.2466   34.7275 C   0  0  0  0  0  0  0  0  0  0  0  0
    2.4133   -1.2449   34.5867 C   0  0  0  0  0  0  0  0  0  0  0  0
    3.3586   -2.1866   33.9242 C   0  0  0  0  0  0  0  0  0  0  0  0
    4.4132   -1.6801   33.1553 C   0  0  0  0  0  0  0  0  0  0  0  0
    4.9501   -2.4485   32.1326 C   0  0  0  0  0  0  0  0  0  0  0  0
    4.4647   -3.7305   31.8913 C   0  0  0  0  0  0  0  0  0  0  0  0
    3.4823   -4.2753   32.7067 C   0  0  0  0  0  0  0  0  0  0  0  0
    2.9446   -3.5158   33.7318 C   0  0  0  0  0  0  0  0  0  0  0  0
    1.8155   -1.6754   36.2063 S   0  0  0  0  0  0  0  0  0  0  0  0
    1.1064   -2.9293   36.2812 O   0  0  0  0  0  0  0  0  0  0  0  0
    2.7909   -1.2878   37.2036 O   0  0  0  0  0  0  0  0  0  0  0  0
   -1.7243    0.2934   35.6111 N   0  0  0  0  0  0  0  0  0  0  0  0
   -1.8553    1.4196   36.3750 C   0  0  0  0  0  0  0  0  0  0  0  0
   -3.0085    1.9999   36.1301 N   0  0  0  0  0  0  0  0  0  0  0  0
   -3.6816    1.2310   35.2069 N   0  0  0  0  0  0  0  0  0  0  0  0
   -2.9260    0.1935   34.9173 C   0  0  0  0  0  0  0  0  0  0  0  0
   -3.0653   -0.8426   33.9527 C   0  0  0  0  0  0  0  0  0  0  0  0
   -1.1493   -2.8435   30.0556 N   0  0  0  0  0  0  0  0  0  0  0  0
   -0.2648   -2.6121   28.9159 C   0  0  0  0  0  0  0  0  0  0  0  0
   -0.3232   -1.2040   28.3520 C   0  0  0  0  0  0  0  0  0  0  0  0
    0.8099   -0.3553   28.3510 C   0  0  0  0  0  0  0  0  0  0  0  0
    0.7304    0.9682   27.8904 C   0  0  0  0  0  0  0  0  0  0  0  0
   -0.4759    1.4075   27.3910 C   0  0  0  0  0  0  0  0  0  0  0  0
   -1.5622    0.5756   27.3211 C   0  0  0  0  0  0  0  0  0  0  0  0
   -1.5176   -0.7219   27.7945 C   0  0  0  0  0  0  0  0  0  0  0  0
   -2.6292    1.1720   26.7249 O   0  0  0  0  0  0  0  0  0  0  0  0
   -2.1299    2.5063   26.5263 C   0  0  0  0  0  0  0  0  0  0  0  0
   -0.7334    2.6404   26.8780 O   0  0  0  0  0  0  0  0  0  0  0  0
   -1.9233   -0.1082   30.4697 H   0  0  0  0  0  0  0  0  0  0  0  0
   -0.6840    1.1403   30.7269 H   0  0  0  0  0  0  0  0  0  0  0  0
   -1.7083    0.6151   32.0570 H   0  0  0  0  0  0  0  0  0  0  0  0
    0.2874   -0.4582   32.5222 H   0  0  0  0  0  0  0  0  0  0  0  0
    0.7365   -0.7124   30.8783 H   0  0  0  0  0  0  0  0  0  0  0  0
   -0.1818   -2.4725   34.4539 H   0  0  0  0  0  0  0  0  0  0  0  0
    1.7403    1.5180   36.2384 H   0  0  0  0  0  0  0  0  0  0  0  0
    0.8234    1.3576   34.7256 H   0  0  0  0  0  0  0  0  0  0  0  0
    3.5917    0.4322   35.3250 H   0  0  0  0  0  0  0  0  0  0  0  0
    2.8354    0.7421   33.7614 H   0  0  0  0  0  0  0  0  0  0  0  0
    1.5559   -1.3126   33.9171 H   0  0  0  0  0  0  0  0  0  0  0  0
    4.7642   -0.6578   33.2678 H   0  0  0  0  0  0  0  0  0  0  0  0
    5.7375   -2.0434   31.5016 H   0  0  0  0  0  0  0  0  0  0  0  0
    4.8752   -4.3153   31.0723 H   0  0  0  0  0  0  0  0  0  0  0  0
    3.0917   -5.2702   32.5195 H   0  0  0  0  0  0  0  0  0  0  0  0
    2.1015   -3.9426   34.2720 H   0  0  0  0  0  0  0  0  0  0  0  0
   -1.1012    1.7597   37.0701 H   0  0  0  0  0  0  0  0  0  0  0  0
   -3.9214   -0.8208   33.2882 H   0  0  0  0  0  0  0  0  0  0  0  0
   -2.0813   -2.5099   29.8564 H   0  0  0  0  0  0  0  0  0  0  0  0
    0.7673   -2.8711   29.1806 H   0  0  0  0  0  0  0  0  0  0  0  0
   -0.5468   -3.3170   28.1319 H   0  0  0  0  0  0  0  0  0  0  0  0
    1.7648   -0.7228   28.7228 H   0  0  0  0  0  0  0  0  0  0  0  0
    1.5957    1.6212   27.9046 H   0  0  0  0  0  0  0  0  0  0  0  0
   -2.3786   -1.3725   27.6862 H   0  0  0  0  0  0  0  0  0  0  0  0
   -2.2490    2.7715   25.4699 H   0  0  0  0  0  0  0  0  0  0  0  0
   -2.7149    3.2049   27.1338 H   0  0  0  0  0  0  0  0  0  0  0  0
  1  2  1  0
  2  3  1  0
  3  4  2  0
  3  5  2  0
  5  6  1  0
  6  7  1  0
  7  8  2  0
  8  9  1  0
  9 10  1  0
 10 11  1  0
 11 12  1  0
 12 13  1  0
 13 14  2  0
 14 15  1  0
 15 16  2  0
 16 17  1  0
 17 18  2  0
 12 19  1  0
 19 20  2  0
 19 21  2  0
  8 22  1  0
 22 23  1  0
 23 24  2  0
 24 25  1  0
 25 26  2  0
 26 27  1  0
  3 28  1  0
 28 29  1  0
 29 30  1  0
 30 31  2  0
 31 32  1  0
 32 33  2  0
 33 34  1  0
 34 35  2  0
 34 36  1  0
 36 37  1  0
 37 38  1  0
 27  6  2  0
 35 30  1  0
 19  9  1  0
 26 22  1  0
 38 33  1  0
 18 13  1  0
  1 39  1  0
  1 40  1  0
  1 41  1  0
  2 42  1  0
  2 43  1  0
  7 44  1  0
 10 45  1  0
 10 46  1  0
 11 47  1  0
 11 48  1  0
 12 49  1  0
 14 50  1  0
 15 51  1  0
 16 52  1  0
 17 53  1  0
 18 54  1  0
 23 55  1  0
 27 56  1  0
 28 57  1  0
 29 58  1  0
 29 59  1  0
 31 60  1  0
 32 61  1  0
 35 62  1  0
 37 63  1  0
 37 64  1  0
M  END
>  <Energy>  (294) 
-2.2891616953761327

>  <compound_id>  (294) 
1623

>  <target_id>  (294) 
1

>  <reference_id>  (294) 
128

>  <inspiration_ids>  (294) 
[13, 128]

>  <energy_score>  (294) 
-52.7592074647834

>  <distance_score>  (294) 
1.6421987814892978

>  <path>  (294) 
/opt/xchem-fragalysis-2/maxwin/BulkDock/SCRATCH/505732/C1623-P128/C1623-P128.minimised.mol

>  <scratch_subdir>  (294) 
/opt/xchem-fragalysis-2/maxwin/BulkDock/SCRATCH/505732/C1623-P128

>  <fragmenstein_runtime>  (294) 
4.086098909378052

>  <fragmenstein_outcome>  (294) 
too moved

>  <fragmenstein_mode>  (294) 
expansion

>  <fragmenstein_error>  (294) 


$$$$
C1624-P13
     RDKit          3D

 45 48  0  0  0  0  0  0  0  0999 V2000
   -1.9607   -0.3877   32.8872 C   0  0  0  0  0  0  0  0  0  0  0  0
   -1.8472   -0.8749   31.4649 C   0  0  0  0  0  0  0  0  0  0  0  0
   -0.8550   -2.3356   31.3634 S   0  0  0  0  0  0  0  0  0  0  0  0
    0.5297   -1.9565   31.5395 O   0  0  0  0  0  0  0  0  0  0  0  0
   -1.5269   -3.4672   32.1618 N   0  0  0  0  0  0  0  0  0  0  0  0
   -0.6208   -4.2170   33.0772 C   0  0  0  0  0  0  0  0  0  0  0  0
    0.0229   -5.3113   32.2798 C   0  0  0  0  0  0  0  0  0  0  0  0
    1.0765   -5.0831   31.4642 C   0  0  0  0  0  0  0  0  0  0  0  0
    1.4319   -6.0703   30.4691 C   0  0  0  0  0  0  0  0  0  0  0  0
    0.7367   -7.2151   30.3484 C   0  0  0  0  0  0  0  0  0  0  0  0
   -0.3255   -7.4921   31.2271 C   0  0  0  0  0  0  0  0  0  0  0  0
   -1.1584   -8.5017   31.3140 N   0  0  0  0  0  0  0  0  0  0  0  0
   -1.8898   -8.3158   32.4538 N   0  0  0  0  0  0  0  0  0  0  0  0
   -1.4914   -7.1970   33.0149 C   0  0  0  0  0  0  0  0  0  0  0  0
   -0.5900   -6.5643   32.2138 N   0  0  0  0  0  0  0  0  0  0  0  0
   -0.9383   -2.9263   29.8023 N   0  0  0  0  0  0  0  0  0  0  0  0
   -0.0820   -2.4337   28.7435 C   0  0  0  0  0  0  0  0  0  0  0  0
   -0.3531   -1.0039   28.3437 C   0  0  0  0  0  0  0  0  0  0  0  0
    0.5965    0.0073   28.6215 C   0  0  0  0  0  0  0  0  0  0  0  0
    0.3785    1.3313   28.2245 C   0  0  0  0  0  0  0  0  0  0  0  0
   -0.7913    1.6168   27.5560 C   0  0  0  0  0  0  0  0  0  0  0  0
   -1.7239    0.6462   27.2887 C   0  0  0  0  0  0  0  0  0  0  0  0
   -1.5396   -0.6658   27.6722 C   0  0  0  0  0  0  0  0  0  0  0  0
   -2.7922    1.1331   26.6046 O   0  0  0  0  0  0  0  0  0  0  0  0
   -2.4581    2.5314   26.5218 C   0  0  0  0  0  0  0  0  0  0  0  0
   -1.1588    2.8354   27.0781 O   0  0  0  0  0  0  0  0  0  0  0  0
   -2.5955    0.4954   32.9566 H   0  0  0  0  0  0  0  0  0  0  0  0
   -2.3954   -1.1529   33.5387 H   0  0  0  0  0  0  0  0  0  0  0  0
   -0.9769   -0.1300   33.2932 H   0  0  0  0  0  0  0  0  0  0  0  0
   -2.8355   -1.1146   31.0675 H   0  0  0  0  0  0  0  0  0  0  0  0
   -1.3931   -0.1019   30.8427 H   0  0  0  0  0  0  0  0  0  0  0  0
   -1.1979   -4.6178   33.9124 H   0  0  0  0  0  0  0  0  0  0  0  0
    0.1280   -3.5610   33.5376 H   0  0  0  0  0  0  0  0  0  0  0  0
    1.5957   -4.1312   31.4255 H   0  0  0  0  0  0  0  0  0  0  0  0
    2.2642   -5.8473   29.8081 H   0  0  0  0  0  0  0  0  0  0  0  0
    1.0032   -7.9905   29.6415 H   0  0  0  0  0  0  0  0  0  0  0  0
   -1.8271   -6.8118   33.9637 H   0  0  0  0  0  0  0  0  0  0  0  0
   -1.9000   -2.9510   29.4821 H   0  0  0  0  0  0  0  0  0  0  0  0
   -0.2216   -3.0783   27.8741 H   0  0  0  0  0  0  0  0  0  0  0  0
    0.9719   -2.5603   29.0190 H   0  0  0  0  0  0  0  0  0  0  0  0
    1.5156   -0.2418   29.1495 H   0  0  0  0  0  0  0  0  0  0  0  0
    1.1049    2.1089   28.4305 H   0  0  0  0  0  0  0  0  0  0  0  0
   -2.2768   -1.4182   27.4060 H   0  0  0  0  0  0  0  0  0  0  0  0
   -3.2154    3.1145   27.0544 H   0  0  0  0  0  0  0  0  0  0  0  0
   -2.4627    2.8296   25.4673 H   0  0  0  0  0  0  0  0  0  0  0  0
  1  2  1  0
  2  3  1  0
  3  4  2  0
  3  5  2  0
  5  6  1  0
  6  7  1  0
  7  8  2  0
  8  9  1  0
  9 10  2  0
 10 11  1  0
 11 12  2  0
 12 13  1  0
 13 14  2  0
 14 15  1  0
  3 16  1  0
 16 17  1  0
 17 18  1  0
 18 19  2  0
 19 20  1  0
 20 21  2  0
 21 22  1  0
 22 23  2  0
 22 24  1  0
 24 25  1  0
 25 26  1  0
 15  7  1  0
 23 18  1  0
 15 11  1  0
 26 21  1  0
  1 27  1  0
  1 28  1  0
  1 29  1  0
  2 30  1  0
  2 31  1  0
  6 32  1  0
  6 33  1  0
  8 34  1  0
  9 35  1  0
 10 36  1  0
 14 37  1  0
 16 38  1  0
 17 39  1  0
 17 40  1  0
 19 41  1  0
 20 42  1  0
 23 43  1  0
 25 44  1  0
 25 45  1  0
M  END
>  <Energy>  (295) 
-83.303235112006547

>  <compound_id>  (295) 
1624

>  <target_id>  (295) 
1

>  <reference_id>  (295) 
13

>  <inspiration_ids>  (295) 
[13, 129]

>  <energy_score>  (295) 
-90.10629586925069

>  <distance_score>  (295) 
0.6543966301470698

>  <path>  (295) 
/opt/xchem-fragalysis-2/maxwin/BulkDock/SCRATCH/505732/C1624-P13/C1624-P13.minimised.mol

>  <scratch_subdir>  (295) 
/opt/xchem-fragalysis-2/maxwin/BulkDock/SCRATCH/505732/C1624-P13

>  <fragmenstein_runtime>  (295) 
3.5056612491607666

>  <fragmenstein_outcome>  (295) 
acceptable

>  <fragmenstein_mode>  (295) 
expansion

>  <fragmenstein_error>  (295) 


$$$$
C1624-P129
     RDKit          3D

 45 48  0  0  0  0  0  0  0  0999 V2000
   -2.5295   -0.5385   31.8797 C   0  0  0  0  0  0  0  0  0  0  0  0
   -1.0440   -0.6683   32.0689 C   0  0  0  0  0  0  0  0  0  0  0  0
   -0.4192   -2.2497   31.6231 S   0  0  0  0  0  0  0  0  0  0  0  0
    1.0215   -2.1322   31.5813 O   0  0  0  0  0  0  0  0  0  0  0  0
   -1.1554   -3.3235   32.4360 N   0  0  0  0  0  0  0  0  0  0  0  0
   -0.2961   -4.2508   33.2100 C   0  0  0  0  0  0  0  0  0  0  0  0
    0.0802   -5.3826   32.3013 C   0  0  0  0  0  0  0  0  0  0  0  0
    0.9685   -5.2388   31.2921 C   0  0  0  0  0  0  0  0  0  0  0  0
    1.0408   -6.2356   30.2488 C   0  0  0  0  0  0  0  0  0  0  0  0
    0.2789   -7.3417   30.2930 C   0  0  0  0  0  0  0  0  0  0  0  0
   -0.5811   -7.5507   31.3853 C   0  0  0  0  0  0  0  0  0  0  0  0
   -1.3942   -8.5343   31.6736 N   0  0  0  0  0  0  0  0  0  0  0  0
   -1.8893   -8.2855   32.9243 N   0  0  0  0  0  0  0  0  0  0  0  0
   -1.4001   -7.1423   33.3443 C   0  0  0  0  0  0  0  0  0  0  0  0
   -0.6154   -6.5892   32.3774 N   0  0  0  0  0  0  0  0  0  0  0  0
   -0.8575   -2.6601   30.0679 N   0  0  0  0  0  0  0  0  0  0  0  0
   -0.0806   -2.2941   28.9060 C   0  0  0  0  0  0  0  0  0  0  0  0
   -0.2750   -0.8614   28.4832 C   0  0  0  0  0  0  0  0  0  0  0  0
    0.6941    0.1234   28.7733 C   0  0  0  0  0  0  0  0  0  0  0  0
    0.5276    1.4452   28.3416 C   0  0  0  0  0  0  0  0  0  0  0  0
   -0.6085    1.7521   27.6246 C   0  0  0  0  0  0  0  0  0  0  0  0
   -1.5566    0.8036   27.3422 C   0  0  0  0  0  0  0  0  0  0  0  0
   -1.4247   -0.5015   27.7654 C   0  0  0  0  0  0  0  0  0  0  0  0
   -2.5820    1.3019   26.6029 O   0  0  0  0  0  0  0  0  0  0  0  0
   -2.2102    2.6880   26.5093 C   0  0  0  0  0  0  0  0  0  0  0  0
   -0.9241    2.9689   27.1066 O   0  0  0  0  0  0  0  0  0  0  0  0
   -3.0778   -1.4411   32.1641 H   0  0  0  0  0  0  0  0  0  0  0  0
   -2.9018    0.2723   32.5059 H   0  0  0  0  0  0  0  0  0  0  0  0
   -2.7539   -0.3136   30.8351 H   0  0  0  0  0  0  0  0  0  0  0  0
   -0.5096    0.0947   31.4970 H   0  0  0  0  0  0  0  0  0  0  0  0
   -0.7842   -0.5259   33.1239 H   0  0  0  0  0  0  0  0  0  0  0  0
   -0.8592   -4.5924   34.0826 H   0  0  0  0  0  0  0  0  0  0  0  0
    0.5925   -3.7509   33.6141 H   0  0  0  0  0  0  0  0  0  0  0  0
    1.5649   -4.3467   31.1458 H   0  0  0  0  0  0  0  0  0  0  0  0
    1.7334   -6.0603   29.4312 H   0  0  0  0  0  0  0  0  0  0  0  0
    0.3487   -8.1417   29.5687 H   0  0  0  0  0  0  0  0  0  0  0  0
   -1.5915   -6.6952   34.3076 H   0  0  0  0  0  0  0  0  0  0  0  0
   -1.8432   -2.4992   29.9134 H   0  0  0  0  0  0  0  0  0  0  0  0
   -0.3841   -2.9520   28.0892 H   0  0  0  0  0  0  0  0  0  0  0  0
    0.9846   -2.5094   29.0517 H   0  0  0  0  0  0  0  0  0  0  0  0
    1.5894   -0.1443   29.3322 H   0  0  0  0  0  0  0  0  0  0  0  0
    1.2696    2.2056   28.5573 H   0  0  0  0  0  0  0  0  0  0  0  0
   -2.1694   -1.2430   27.4909 H   0  0  0  0  0  0  0  0  0  0  0  0
   -2.9705    3.2986   27.0053 H   0  0  0  0  0  0  0  0  0  0  0  0
   -2.1701    2.9687   25.4507 H   0  0  0  0  0  0  0  0  0  0  0  0
  1  2  1  0
  2  3  1  0
  3  4  2  0
  3  5  2  0
  5  6  1  0
  6  7  1  0
  7  8  2  0
  8  9  1  0
  9 10  2  0
 10 11  1  0
 11 12  2  0
 12 13  1  0
 13 14  2  0
 14 15  1  0
  3 16  1  0
 16 17  1  0
 17 18  1  0
 18 19  2  0
 19 20  1  0
 20 21  2  0
 21 22  1  0
 22 23  2  0
 22 24  1  0
 24 25  1  0
 25 26  1  0
 15  7  1  0
 23 18  1  0
 15 11  1  0
 26 21  1  0
  1 27  1  0
  1 28  1  0
  1 29  1  0
  2 30  1  0
  2 31  1  0
  6 32  1  0
  6 33  1  0
  8 34  1  0
  9 35  1  0
 10 36  1  0
 14 37  1  0
 16 38  1  0
 17 39  1  0
 17 40  1  0
 19 41  1  0
 20 42  1  0
 23 43  1  0
 25 44  1  0
 25 45  1  0
M  END
>  <Energy>  (296) 
-80.704570356047242

>  <compound_id>  (296) 
1624

>  <target_id>  (296) 
1

>  <reference_id>  (296) 
129

>  <inspiration_ids>  (296) 
[13, 129]

>  <energy_score>  (296) 
-87.50763111328979

>  <distance_score>  (296) 
0.6711937508022859

>  <path>  (296) 
/opt/xchem-fragalysis-2/maxwin/BulkDock/SCRATCH/505732/C1624-P129/C1624-P129.minimised.mol

>  <scratch_subdir>  (296) 
/opt/xchem-fragalysis-2/maxwin/BulkDock/SCRATCH/505732/C1624-P129

>  <fragmenstein_runtime>  (296) 
1.9874951839447021

>  <fragmenstein_outcome>  (296) 
acceptable

>  <fragmenstein_mode>  (296) 
expansion

>  <fragmenstein_error>  (296) 


$$$$
C1625-P13
     RDKit          3D

 56 61  0  0  0  0  0  0  0  0999 V2000
   -1.9129   -0.4822   32.6580 C   0  0  0  0  0  0  0  0  0  0  0  0
   -1.3557   -0.6508   31.2639 C   0  0  0  0  0  0  0  0  0  0  0  0
   -0.4786   -2.1826   31.0980 S   0  0  0  0  0  0  0  0  0  0  0  0
    0.8930   -2.0051   31.5156 O   0  0  0  0  0  0  0  0  0  0  0  0
   -1.3695   -3.3206   31.5848 N   0  0  0  0  0  0  0  0  0  0  0  0
   -0.6925   -4.5613   31.9433 C   0  0  0  0  0  0  0  0  0  0  0  0
   -0.5877   -4.9447   33.3386 C   0  0  0  0  0  0  0  0  0  0  0  0
   -0.6844   -6.2487   33.6458 C   0  0  0  0  0  0  0  0  0  0  0  0
   -0.8070   -6.7710   35.2900 S   0  0  0  0  0  0  0  0  0  0  0  0
    0.7548   -7.5171   35.4654 C   0  0  0  0  0  0  0  0  0  0  0  0
    1.6996   -7.5628   34.5435 N   0  0  0  0  0  0  0  0  0  0  0  0
    2.7505   -8.2735   35.0855 N   0  0  0  0  0  0  0  0  0  0  0  0
    2.3896   -8.6030   36.3133 C   0  0  0  0  0  0  0  0  0  0  0  0
    3.1995   -9.3665   37.2011 C   0  0  0  0  0  0  0  0  0  0  0  0
    2.9406   -9.8073   38.4837 C   0  0  0  0  0  0  0  0  0  0  0  0
    4.0717  -10.5396   38.9215 C   0  0  0  0  0  0  0  0  0  0  0  0
    4.9903  -10.5261   37.8962 C   0  0  0  0  0  0  0  0  0  0  0  0
    4.4537   -9.8105   36.8573 N   0  0  0  0  0  0  0  0  0  0  0  0
    1.1332   -8.1514   36.6183 O   0  0  0  0  0  0  0  0  0  0  0  0
   -0.8145   -7.1348   32.5745 N   0  0  0  0  0  0  0  0  0  0  0  0
   -1.4458   -8.3309   32.4691 C   0  0  0  0  0  0  0  0  0  0  0  0
   -1.3097   -8.8294   31.2640 N   0  0  0  0  0  0  0  0  0  0  0  0
   -0.7138   -7.8681   30.4906 N   0  0  0  0  0  0  0  0  0  0  0  0
   -0.5393   -6.8133   31.2573 C   0  0  0  0  0  0  0  0  0  0  0  0
   -0.4344   -5.4381   30.9517 C   0  0  0  0  0  0  0  0  0  0  0  0
   -0.3854   -2.5936   29.4820 N   0  0  0  0  0  0  0  0  0  0  0  0
    0.4796   -1.9008   28.5677 C   0  0  0  0  0  0  0  0  0  0  0  0
   -0.0287   -0.5383   28.1854 C   0  0  0  0  0  0  0  0  0  0  0  0
    0.7771    0.5988   28.4152 C   0  0  0  0  0  0  0  0  0  0  0  0
    0.3519    1.8688   28.0211 C   0  0  0  0  0  0  0  0  0  0  0  0
   -0.8727    1.9710   27.3997 C   0  0  0  0  0  0  0  0  0  0  0  0
   -1.6687    0.8754   27.1810 C   0  0  0  0  0  0  0  0  0  0  0  0
   -1.2816   -0.3880   27.5652 C   0  0  0  0  0  0  0  0  0  0  0  0
   -2.8167    1.1916   26.5295 O   0  0  0  0  0  0  0  0  0  0  0  0
   -2.6768    2.6195   26.3983 C   0  0  0  0  0  0  0  0  0  0  0  0
   -1.4225    3.1155   26.9169 O   0  0  0  0  0  0  0  0  0  0  0  0
   -2.3774    0.4950   32.7847 H   0  0  0  0  0  0  0  0  0  0  0  0
   -2.6732   -1.2386   32.8784 H   0  0  0  0  0  0  0  0  0  0  0  0
   -1.1228   -0.5766   33.4105 H   0  0  0  0  0  0  0  0  0  0  0  0
   -2.1724   -0.6454   30.5364 H   0  0  0  0  0  0  0  0  0  0  0  0
   -0.6617    0.1607   31.0318 H   0  0  0  0  0  0  0  0  0  0  0  0
   -0.5598   -4.1567   34.0832 H   0  0  0  0  0  0  0  0  0  0  0  0
    2.0325   -9.6260   39.0456 H   0  0  0  0  0  0  0  0  0  0  0  0
    4.2009  -11.0257   39.8805 H   0  0  0  0  0  0  0  0  0  0  0  0
    5.9772  -10.9633   37.8162 H   0  0  0  0  0  0  0  0  0  0  0  0
    4.9067   -9.6355   35.9686 H   0  0  0  0  0  0  0  0  0  0  0  0
   -2.0521   -8.7244   33.2611 H   0  0  0  0  0  0  0  0  0  0  0  0
   -0.5113   -5.1619   29.9080 H   0  0  0  0  0  0  0  0  0  0  0  0
   -1.3210   -2.6966   29.1008 H   0  0  0  0  0  0  0  0  0  0  0  0
    0.5852   -2.5057   27.6702 H   0  0  0  0  0  0  0  0  0  0  0  0
    1.4938   -1.8339   28.9792 H   0  0  0  0  0  0  0  0  0  0  0  0
    1.7478    0.4944   28.8967 H   0  0  0  0  0  0  0  0  0  0  0  0
    0.9644    2.7480   28.1859 H   0  0  0  0  0  0  0  0  0  0  0  0
   -1.9165   -1.2387   27.3322 H   0  0  0  0  0  0  0  0  0  0  0  0
   -3.4961    3.1066   26.9321 H   0  0  0  0  0  0  0  0  0  0  0  0
   -2.7427    2.8822   25.3365 H   0  0  0  0  0  0  0  0  0  0  0  0
  1  2  1  0
  2  3  1  0
  3  4  2  0
  3  5  2  0
  5  6  1  0
  6  7  1  0
  7  8  2  0
  8  9  1  0
  9 10  1  0
 10 11  2  0
 11 12  1  0
 12 13  2  0
 13 14  1  0
 14 15  2  0
 15 16  1  0
 16 17  2  0
 17 18  1  0
 13 19  1  0
  8 20  1  0
 20 21  1  0
 21 22  2  0
 22 23  1  0
 23 24  2  0
 24 25  1  0
  3 26  1  0
 26 27  1  0
 27 28  1  0
 28 29  2  0
 29 30  1  0
 30 31  2  0
 31 32  1  0
 32 33  2  0
 32 34  1  0
 34 35  1  0
 35 36  1  0
 25  6  2  0
 33 28  1  0
 19 10  1  0
 24 20  1  0
 36 31  1  0
 18 14  1  0
  1 37  1  0
  1 38  1  0
  1 39  1  0
  2 40  1  0
  2 41  1  0
  7 42  1  0
 15 43  1  0
 16 44  1  0
 17 45  1  0
 18 46  1  0
 21 47  1  0
 25 48  1  0
 26 49  1  0
 27 50  1  0
 27 51  1  0
 29 52  1  0
 30 53  1  0
 33 54  1  0
 35 55  1  0
 35 56  1  0
M  END
>  <Energy>  (297) 
-61.523334865389671

>  <compound_id>  (297) 
1625

>  <target_id>  (297) 
1

>  <reference_id>  (297) 
13

>  <inspiration_ids>  (297) 
[13, 130]

>  <energy_score>  (297) 
-78.14230153308927

>  <distance_score>  (297) 
1.087649076231914

>  <path>  (297) 
/opt/xchem-fragalysis-2/maxwin/BulkDock/SCRATCH/505732/C1625-P13/C1625-P13.minimised.mol

>  <scratch_subdir>  (297) 
/opt/xchem-fragalysis-2/maxwin/BulkDock/SCRATCH/505732/C1625-P13

>  <fragmenstein_runtime>  (297) 
6.971583843231201

>  <fragmenstein_outcome>  (297) 
too moved

>  <fragmenstein_mode>  (297) 
expansion

>  <fragmenstein_error>  (297) 


$$$$
C1625-P130
     RDKit          3D

 56 61  0  0  0  0  0  0  0  0999 V2000
   -2.1429   -0.2840   31.6594 C   0  0  0  0  0  0  0  0  0  0  0  0
   -0.6675   -0.5591   31.8190 C   0  0  0  0  0  0  0  0  0  0  0  0
   -0.1912   -2.1781   31.3141 S   0  0  0  0  0  0  0  0  0  0  0  0
    1.2419   -2.3019   31.4482 O   0  0  0  0  0  0  0  0  0  0  0  0
   -1.1795   -3.1881   31.8857 N   0  0  0  0  0  0  0  0  0  0  0  0
   -0.6651   -4.5280   32.1141 C   0  0  0  0  0  0  0  0  0  0  0  0
   -0.5483   -5.0210   33.4708 C   0  0  0  0  0  0  0  0  0  0  0  0
   -0.6554   -6.3423   33.6814 C   0  0  0  0  0  0  0  0  0  0  0  0
   -0.6920   -6.9925   35.2831 S   0  0  0  0  0  0  0  0  0  0  0  0
    1.0153   -7.2786   35.4545 C   0  0  0  0  0  0  0  0  0  0  0  0
    1.8400   -7.5619   34.4634 N   0  0  0  0  0  0  0  0  0  0  0  0
    3.0809   -7.7560   35.0250 N   0  0  0  0  0  0  0  0  0  0  0  0
    2.9432   -7.5614   36.3253 C   0  0  0  0  0  0  0  0  0  0  0  0
    4.0116   -7.6626   37.2607 C   0  0  0  0  0  0  0  0  0  0  0  0
    4.0088   -7.5305   38.6349 C   0  0  0  0  0  0  0  0  0  0  0  0
    5.3376   -7.7260   39.0866 C   0  0  0  0  0  0  0  0  0  0  0  0
    6.1153   -7.9737   37.9777 C   0  0  0  0  0  0  0  0  0  0  0  0
    5.3015   -7.9373   36.8751 N   0  0  0  0  0  0  0  0  0  0  0  0
    1.6489   -7.2629   36.6659 O   0  0  0  0  0  0  0  0  0  0  0  0
   -0.8151   -7.1499   32.5553 N   0  0  0  0  0  0  0  0  0  0  0  0
   -1.3945   -8.3640   32.3884 C   0  0  0  0  0  0  0  0  0  0  0  0
   -1.2920   -8.7665   31.1444 N   0  0  0  0  0  0  0  0  0  0  0  0
   -0.7602   -7.7325   30.4227 N   0  0  0  0  0  0  0  0  0  0  0  0
   -0.5883   -6.7310   31.2576 C   0  0  0  0  0  0  0  0  0  0  0  0
   -0.4819   -5.3391   31.0528 C   0  0  0  0  0  0  0  0  0  0  0  0
   -0.4880   -2.4165   29.6978 N   0  0  0  0  0  0  0  0  0  0  0  0
    0.3252   -1.8542   28.6595 C   0  0  0  0  0  0  0  0  0  0  0  0
   -0.1102   -0.4702   28.2727 C   0  0  0  0  0  0  0  0  0  0  0  0
    0.7481    0.6301   28.4805 C   0  0  0  0  0  0  0  0  0  0  0  0
    0.3731    1.9137   28.0771 C   0  0  0  0  0  0  0  0  0  0  0  0
   -0.8535    2.0642   27.4686 C   0  0  0  0  0  0  0  0  0  0  0  0
   -1.6965    1.0015   27.2669 C   0  0  0  0  0  0  0  0  0  0  0  0
   -1.3604   -0.2725   27.6625 C   0  0  0  0  0  0  0  0  0  0  0  0
   -2.8330    1.3582   26.6154 O   0  0  0  0  0  0  0  0  0  0  0  0
   -2.6371    2.7777   26.4722 C   0  0  0  0  0  0  0  0  0  0  0  0
   -1.3597    3.2256   26.9773 O   0  0  0  0  0  0  0  0  0  0  0  0
   -2.3776    0.6588   32.1509 H   0  0  0  0  0  0  0  0  0  0  0  0
   -2.4228   -0.2134   30.6056 H   0  0  0  0  0  0  0  0  0  0  0  0
   -2.7645   -1.0536   32.1262 H   0  0  0  0  0  0  0  0  0  0  0  0
   -0.0687    0.1664   31.2635 H   0  0  0  0  0  0  0  0  0  0  0  0
   -0.3862   -0.4735   32.8745 H   0  0  0  0  0  0  0  0  0  0  0  0
   -0.4821   -4.2934   34.2719 H   0  0  0  0  0  0  0  0  0  0  0  0
    3.1423   -7.3214   39.2500 H   0  0  0  0  0  0  0  0  0  0  0  0
    5.6876   -7.6936   40.1107 H   0  0  0  0  0  0  0  0  0  0  0  0
    7.1736   -8.1767   37.8787 H   0  0  0  0  0  0  0  0  0  0  0  0
    5.5975   -8.0891   35.9186 H   0  0  0  0  0  0  0  0  0  0  0  0
   -1.9293   -8.8505   33.1789 H   0  0  0  0  0  0  0  0  0  0  0  0
   -0.5410   -4.9836   30.0320 H   0  0  0  0  0  0  0  0  0  0  0  0
   -1.4767   -2.3381   29.4965 H   0  0  0  0  0  0  0  0  0  0  0  0
    0.2415   -2.5072   27.7970 H   0  0  0  0  0  0  0  0  0  0  0  0
    1.3890   -1.8706   28.9231 H   0  0  0  0  0  0  0  0  0  0  0  0
    1.7231    0.4853   28.9424 H   0  0  0  0  0  0  0  0  0  0  0  0
    1.0295    2.7649   28.2194 H   0  0  0  0  0  0  0  0  0  0  0  0
   -2.0263   -1.1028   27.4436 H   0  0  0  0  0  0  0  0  0  0  0  0
   -3.4331    3.3039   27.0059 H   0  0  0  0  0  0  0  0  0  0  0  0
   -2.6993    3.0337   25.4084 H   0  0  0  0  0  0  0  0  0  0  0  0
  1  2  1  0
  2  3  1  0
  3  4  2  0
  3  5  2  0
  5  6  1  0
  6  7  1  0
  7  8  2  0
  8  9  1  0
  9 10  1  0
 10 11  2  0
 11 12  1  0
 12 13  2  0
 13 14  1  0
 14 15  2  0
 15 16  1  0
 16 17  2  0
 17 18  1  0
 13 19  1  0
  8 20  1  0
 20 21  1  0
 21 22  2  0
 22 23  1  0
 23 24  2  0
 24 25  1  0
  3 26  1  0
 26 27  1  0
 27 28  1  0
 28 29  2  0
 29 30  1  0
 30 31  2  0
 31 32  1  0
 32 33  2  0
 32 34  1  0
 34 35  1  0
 35 36  1  0
 25  6  2  0
 33 28  1  0
 19 10  1  0
 24 20  1  0
 36 31  1  0
 18 14  1  0
  1 37  1  0
  1 38  1  0
  1 39  1  0
  2 40  1  0
  2 41  1  0
  7 42  1  0
 15 43  1  0
 16 44  1  0
 17 45  1  0
 18 46  1  0
 21 47  1  0
 25 48  1  0
 26 49  1  0
 27 50  1  0
 27 51  1  0
 29 52  1  0
 30 53  1  0
 33 54  1  0
 35 55  1  0
 35 56  1  0
M  END
>  <Energy>  (298) 
-64.064681177783044

>  <compound_id>  (298) 
1625

>  <target_id>  (298) 
1

>  <reference_id>  (298) 
130

>  <inspiration_ids>  (298) 
[13, 130]

>  <energy_score>  (298) 
-80.68364784548129

>  <distance_score>  (298) 
1.0240717651052902

>  <path>  (298) 
/opt/xchem-fragalysis-2/maxwin/BulkDock/SCRATCH/505732/C1625-P130/C1625-P130.minimised.mol

>  <scratch_subdir>  (298) 
/opt/xchem-fragalysis-2/maxwin/BulkDock/SCRATCH/505732/C1625-P130

>  <fragmenstein_runtime>  (298) 
6.6190996170043945

>  <fragmenstein_outcome>  (298) 
too moved

>  <fragmenstein_mode>  (298) 
expansion

>  <fragmenstein_error>  (298) 


$$$$
C1626-P13
     RDKit          3D

 59 64  0  0  0  0  0  0  0  0999 V2000
   -2.3001   -0.1410   30.6216 C   0  0  0  0  0  0  0  0  0  0  0  0
   -0.8662   -0.0533   31.0988 C   0  0  0  0  0  0  0  0  0  0  0  0
   -0.2642   -1.7013   31.2674 S   0  0  0  0  0  0  0  0  0  0  0  0
    1.1573   -1.7335   31.5086 O   0  0  0  0  0  0  0  0  0  0  0  0
   -1.3053   -2.3522   32.1792 N   0  0  0  0  0  0  0  0  0  0  0  0
   -0.7891   -2.9940   33.3740 C   0  0  0  0  0  0  0  0  0  0  0  0
   -0.4064   -4.3875   32.9863 C   0  0  0  0  0  0  0  0  0  0  0  0
    0.3840   -5.1331   33.9414 C   0  0  0  0  0  0  0  0  0  0  0  0
    0.3541   -6.4756   33.8738 C   0  0  0  0  0  0  0  0  0  0  0  0
    1.1286   -7.4598   35.0753 S   0  0  0  0  0  0  0  0  0  0  0  0
    0.3797   -6.8401   36.5232 C   0  0  0  0  0  0  0  0  0  0  0  0
   -0.6415   -6.0104   36.5656 N   0  0  0  0  0  0  0  0  0  0  0  0
   -0.8556   -5.7152   37.8918 N   0  0  0  0  0  0  0  0  0  0  0  0
    0.0193   -6.4151   38.5867 C   0  0  0  0  0  0  0  0  0  0  0  0
    0.0933   -6.4234   40.0091 C   0  0  0  0  0  0  0  0  0  0  0  0
   -0.6984   -5.7795   40.9401 C   0  0  0  0  0  0  0  0  0  0  0  0
   -0.2142   -6.1226   42.2261 C   0  0  0  0  0  0  0  0  0  0  0  0
    0.8569   -6.9688   42.0476 C   0  0  0  0  0  0  0  0  0  0  0  0
    1.0324   -7.1498   40.6998 N   0  0  0  0  0  0  0  0  0  0  0  0
    0.8469   -7.1503   37.7736 O   0  0  0  0  0  0  0  0  0  0  0  0
   -0.2921   -7.0425   32.7642 N   0  0  0  0  0  0  0  0  0  0  0  0
   -0.7389   -8.2860   32.4924 C   0  0  0  0  0  0  0  0  0  0  0  0
   -1.2131   -8.4106   31.2816 N   0  0  0  0  0  0  0  0  0  0  0  0
   -1.1884   -7.1631   30.7403 N   0  0  0  0  0  0  0  0  0  0  0  0
   -0.7517   -6.3486   31.6762 C   0  0  0  0  0  0  0  0  0  0  0  0
   -0.8575   -4.9704   31.8546 C   0  0  0  0  0  0  0  0  0  0  0  0
   -0.4331   -2.5173   29.8044 N   0  0  0  0  0  0  0  0  0  0  0  0
    0.3222   -2.1344   28.6217 C   0  0  0  0  0  0  0  0  0  0  0  0
   -0.0288   -0.7740   28.0792 C   0  0  0  0  0  0  0  0  0  0  0  0
    0.9216    0.2735   28.1124 C   0  0  0  0  0  0  0  0  0  0  0  0
    0.5868    1.5598   27.6782 C   0  0  0  0  0  0  0  0  0  0  0  0
   -0.6893    1.7648   27.2002 C   0  0  0  0  0  0  0  0  0  0  0  0
   -1.6101    0.7491   27.1332 C   0  0  0  0  0  0  0  0  0  0  0  0
   -1.3115   -0.5270   27.5590 C   0  0  0  0  0  0  0  0  0  0  0  0
   -2.7947    1.1608   26.6127 O   0  0  0  0  0  0  0  0  0  0  0  0
   -2.5399    2.5638   26.4130 C   0  0  0  0  0  0  0  0  0  0  0  0
   -1.1809    2.9422   26.7314 O   0  0  0  0  0  0  0  0  0  0  0  0
   -2.5112   -1.0458   30.0504 H   0  0  0  0  0  0  0  0  0  0  0  0
   -2.5343    0.6758   29.9479 H   0  0  0  0  0  0  0  0  0  0  0  0
   -2.9850   -0.1524   31.4731 H   0  0  0  0  0  0  0  0  0  0  0  0
   -0.2230    0.5063   30.4269 H   0  0  0  0  0  0  0  0  0  0  0  0
   -0.8050    0.4323   32.0780 H   0  0  0  0  0  0  0  0  0  0  0  0
    0.0523   -2.4390   33.8060 H   0  0  0  0  0  0  0  0  0  0  0  0
   -1.5721   -3.0215   34.1377 H   0  0  0  0  0  0  0  0  0  0  0  0
    0.8858   -4.5890   34.7368 H   0  0  0  0  0  0  0  0  0  0  0  0
   -1.5438   -5.1389   40.7148 H   0  0  0  0  0  0  0  0  0  0  0  0
   -0.6109   -5.7929   43.1782 H   0  0  0  0  0  0  0  0  0  0  0  0
    1.5022   -7.4626   42.7624 H   0  0  0  0  0  0  0  0  0  0  0  0
    1.7414   -7.7357   40.2774 H   0  0  0  0  0  0  0  0  0  0  0  0
   -0.7030   -9.0132   33.2455 H   0  0  0  0  0  0  0  0  0  0  0  0
   -1.4976   -4.4478   31.1603 H   0  0  0  0  0  0  0  0  0  0  0  0
   -0.1665   -3.4706   29.9952 H   0  0  0  0  0  0  0  0  0  0  0  0
    1.3979   -2.2002   28.8247 H   0  0  0  0  0  0  0  0  0  0  0  0
    0.1226   -2.8792   27.8491 H   0  0  0  0  0  0  0  0  0  0  0  0
    1.9199    0.0922   28.5058 H   0  0  0  0  0  0  0  0  0  0  0  0
    1.3017    2.3734   27.7171 H   0  0  0  0  0  0  0  0  0  0  0  0
   -2.0540   -1.3179   27.4862 H   0  0  0  0  0  0  0  0  0  0  0  0
   -2.7318    2.8094   25.3625 H   0  0  0  0  0  0  0  0  0  0  0  0
   -3.2217    3.1454   27.0407 H   0  0  0  0  0  0  0  0  0  0  0  0
  1  2  1  0
  2  3  1  0
  3  4  2  0
  3  5  2  0
  5  6  1  0
  6  7  1  0
  7  8  1  0
  8  9  2  0
  9 10  1  0
 10 11  1  0
 11 12  2  0
 12 13  1  0
 13 14  2  0
 14 15  1  0
 15 16  2  0
 16 17  1  0
 17 18  2  0
 18 19  1  0
 14 20  1  0
  9 21  1  0
 21 22  1  0
 22 23  2  0
 23 24  1  0
 24 25  2  0
 25 26  1  0
  3 27  1  0
 27 28  1  0
 28 29  1  0
 29 30  2  0
 30 31  1  0
 31 32  2  0
 32 33  1  0
 33 34  2  0
 33 35  1  0
 35 36  1  0
 36 37  1  0
 26  7  2  0
 34 29  1  0
 20 11  1  0
 25 21  1  0
 37 32  1  0
 19 15  1  0
  1 38  1  0
  1 39  1  0
  1 40  1  0
  2 41  1  0
  2 42  1  0
  6 43  1  0
  6 44  1  0
  8 45  1  0
 16 46  1  0
 17 47  1  0
 18 48  1  0
 19 49  1  0
 22 50  1  0
 26 51  1  0
 27 52  1  0
 28 53  1  0
 28 54  1  0
 30 55  1  0
 31 56  1  0
 34 57  1  0
 36 58  1  0
 36 59  1  0
M  END
>  <Energy>  (299) 
-44.193151542406078

>  <compound_id>  (299) 
1626

>  <target_id>  (299) 
1

>  <reference_id>  (299) 
13

>  <inspiration_ids>  (299) 
[13, 131]

>  <energy_score>  (299) 
-56.06021297272622

>  <distance_score>  (299) 
1.068690744576266

>  <path>  (299) 
/opt/xchem-fragalysis-2/maxwin/BulkDock/SCRATCH/505732/C1626-P13/C1626-P13.minimised.mol

>  <scratch_subdir>  (299) 
/opt/xchem-fragalysis-2/maxwin/BulkDock/SCRATCH/505732/C1626-P13

>  <fragmenstein_runtime>  (299) 
6.357694387435913

>  <fragmenstein_outcome>  (299) 
too moved

>  <fragmenstein_mode>  (299) 
expansion

>  <fragmenstein_error>  (299) 


$$$$
C1626-P131
     RDKit          3D

 59 64  0  0  0  0  0  0  0  0999 V2000
   -2.6557   -0.9596   32.1121 C   0  0  0  0  0  0  0  0  0  0  0  0
   -1.3024   -0.4196   31.7229 C   0  0  0  0  0  0  0  0  0  0  0  0
   -0.1475   -1.6899   31.3236 S   0  0  0  0  0  0  0  0  0  0  0  0
    1.1365   -1.0880   31.0622 O   0  0  0  0  0  0  0  0  0  0  0  0
   -0.2739   -2.8616   32.2811 N   0  0  0  0  0  0  0  0  0  0  0  0
    1.0062   -3.5804   32.4444 C   0  0  0  0  0  0  0  0  0  0  0  0
    0.6190   -5.0107   32.4847 C   0  0  0  0  0  0  0  0  0  0  0  0
    0.2266   -5.5028   33.7910 C   0  0  0  0  0  0  0  0  0  0  0  0
   -0.4551   -6.6539   33.8726 C   0  0  0  0  0  0  0  0  0  0  0  0
   -1.0152   -7.2495   35.3951 S   0  0  0  0  0  0  0  0  0  0  0  0
    0.5228   -7.5355   36.1589 C   0  0  0  0  0  0  0  0  0  0  0  0
    1.6812   -7.6605   35.5334 N   0  0  0  0  0  0  0  0  0  0  0  0
    2.6356   -7.8584   36.5089 N   0  0  0  0  0  0  0  0  0  0  0  0
    1.9967   -7.8609   37.6667 C   0  0  0  0  0  0  0  0  0  0  0  0
    2.6311   -8.0819   38.9225 C   0  0  0  0  0  0  0  0  0  0  0  0
    2.0872   -8.2071   40.1851 C   0  0  0  0  0  0  0  0  0  0  0  0
    3.1545   -8.4278   41.0907 C   0  0  0  0  0  0  0  0  0  0  0  0
    4.3200   -8.4346   40.3570 C   0  0  0  0  0  0  0  0  0  0  0  0
    3.9914   -8.2262   39.0423 N   0  0  0  0  0  0  0  0  0  0  0  0
    0.6547   -7.6369   37.5163 O   0  0  0  0  0  0  0  0  0  0  0  0
   -0.7515   -7.3165   32.6815 N   0  0  0  0  0  0  0  0  0  0  0  0
   -1.5672   -8.3680   32.4151 C   0  0  0  0  0  0  0  0  0  0  0  0
   -1.5332   -8.6769   31.1422 N   0  0  0  0  0  0  0  0  0  0  0  0
   -0.7267   -7.7679   30.5142 N   0  0  0  0  0  0  0  0  0  0  0  0
   -0.2858   -6.9371   31.4326 C   0  0  0  0  0  0  0  0  0  0  0  0
    0.4412   -5.7296   31.3554 C   0  0  0  0  0  0  0  0  0  0  0  0
   -0.5895   -2.4323   29.8903 N   0  0  0  0  0  0  0  0  0  0  0  0
    0.0418   -2.0715   28.6415 C   0  0  0  0  0  0  0  0  0  0  0  0
   -0.2595   -0.6585   28.2139 C   0  0  0  0  0  0  0  0  0  0  0  0
    0.7213    0.3522   28.3379 C   0  0  0  0  0  0  0  0  0  0  0  0
    0.4628    1.6634   27.9309 C   0  0  0  0  0  0  0  0  0  0  0  0
   -0.7749    1.9330   27.3941 C   0  0  0  0  0  0  0  0  0  0  0  0
   -1.7357    0.9610   27.2720 C   0  0  0  0  0  0  0  0  0  0  0  0
   -1.5163   -0.3360   27.6834 C   0  0  0  0  0  0  0  0  0  0  0  0
   -2.8671    1.4286   26.6834 O   0  0  0  0  0  0  0  0  0  0  0  0
   -2.5237    2.8099   26.4716 C   0  0  0  0  0  0  0  0  0  0  0  0
   -1.1848    3.1327   26.9046 O   0  0  0  0  0  0  0  0  0  0  0  0
   -2.5948   -1.5603   33.0258 H   0  0  0  0  0  0  0  0  0  0  0  0
   -3.0706   -1.5983   31.3299 H   0  0  0  0  0  0  0  0  0  0  0  0
   -3.3579   -0.1496   32.3082 H   0  0  0  0  0  0  0  0  0  0  0  0
   -1.3836    0.2431   30.8575 H   0  0  0  0  0  0  0  0  0  0  0  0
   -0.8733    0.1585   32.5476 H   0  0  0  0  0  0  0  0  0  0  0  0
    1.7111   -3.4326   31.6163 H   0  0  0  0  0  0  0  0  0  0  0  0
    1.5145   -3.2491   33.3569 H   0  0  0  0  0  0  0  0  0  0  0  0
    0.4452   -4.8955   34.6653 H   0  0  0  0  0  0  0  0  0  0  0  0
    1.0323   -8.1530   40.4259 H   0  0  0  0  0  0  0  0  0  0  0  0
    3.0787   -8.5679   42.1616 H   0  0  0  0  0  0  0  0  0  0  0  0
    5.3512   -8.5690   40.6558 H   0  0  0  0  0  0  0  0  0  0  0  0
    4.6434   -8.1819   38.2689 H   0  0  0  0  0  0  0  0  0  0  0  0
   -2.1663   -8.8407   33.1709 H   0  0  0  0  0  0  0  0  0  0  0  0
    0.6649   -5.3238   30.3740 H   0  0  0  0  0  0  0  0  0  0  0  0
   -1.5941   -2.4026   29.7817 H   0  0  0  0  0  0  0  0  0  0  0  0
    1.1242   -2.2412   28.6881 H   0  0  0  0  0  0  0  0  0  0  0  0
   -0.3249   -2.7699   27.8933 H   0  0  0  0  0  0  0  0  0  0  0  0
    1.6999    0.1130   28.7515 H   0  0  0  0  0  0  0  0  0  0  0  0
    1.2151    2.4389   28.0182 H   0  0  0  0  0  0  0  0  0  0  0  0
   -2.2745   -1.0978   27.5321 H   0  0  0  0  0  0  0  0  0  0  0  0
   -2.6044    3.0295   25.4008 H   0  0  0  0  0  0  0  0  0  0  0  0
   -3.2325    3.4455   27.0112 H   0  0  0  0  0  0  0  0  0  0  0  0
  1  2  1  0
  2  3  1  0
  3  4  2  0
  3  5  2  0
  5  6  1  0
  6  7  1  0
  7  8  1  0
  8  9  2  0
  9 10  1  0
 10 11  1  0
 11 12  2  0
 12 13  1  0
 13 14  2  0
 14 15  1  0
 15 16  2  0
 16 17  1  0
 17 18  2  0
 18 19  1  0
 14 20  1  0
  9 21  1  0
 21 22  1  0
 22 23  2  0
 23 24  1  0
 24 25  2  0
 25 26  1  0
  3 27  1  0
 27 28  1  0
 28 29  1  0
 29 30  2  0
 30 31  1  0
 31 32  2  0
 32 33  1  0
 33 34  2  0
 33 35  1  0
 35 36  1  0
 36 37  1  0
 26  7  2  0
 34 29  1  0
 20 11  1  0
 25 21  1  0
 37 32  1  0
 19 15  1  0
  1 38  1  0
  1 39  1  0
  1 40  1  0
  2 41  1  0
  2 42  1  0
  6 43  1  0
  6 44  1  0
  8 45  1  0
 16 46  1  0
 17 47  1  0
 18 48  1  0
 19 49  1  0
 22 50  1  0
 26 51  1  0
 27 52  1  0
 28 53  1  0
 28 54  1  0
 30 55  1  0
 31 56  1  0
 34 57  1  0
 36 58  1  0
 36 59  1  0
M  END
>  <Energy>  (300) 
-63.180734367548418

>  <compound_id>  (300) 
1626

>  <target_id>  (300) 
1

>  <reference_id>  (300) 
131

>  <inspiration_ids>  (300) 
[13, 131]

>  <energy_score>  (300) 
-75.04779579786828

>  <distance_score>  (300) 
1.1844315078449157

>  <path>  (300) 
/opt/xchem-fragalysis-2/maxwin/BulkDock/SCRATCH/505732/C1626-P131/C1626-P131.minimised.mol

>  <scratch_subdir>  (300) 
/opt/xchem-fragalysis-2/maxwin/BulkDock/SCRATCH/505732/C1626-P131

>  <fragmenstein_runtime>  (300) 
7.099968194961548

>  <fragmenstein_outcome>  (300) 
too moved

>  <fragmenstein_mode>  (300) 
expansion

>  <fragmenstein_error>  (300) 


$$$$
C1627-P13
     RDKit          3D

 60 65  0  0  0  0  0  0  0  0999 V2000
   -2.0046   -0.4194   31.8294 C   0  0  0  0  0  0  0  0  0  0  0  0
   -0.6994   -1.1703   31.9556 C   0  0  0  0  0  0  0  0  0  0  0  0
   -0.7806   -2.7811   31.2272 S   0  0  0  0  0  0  0  0  0  0  0  0
   -2.0056   -3.4240   31.6672 O   0  0  0  0  0  0  0  0  0  0  0  0
    0.6122   -3.4461   31.3402 N   0  0  0  0  0  0  0  0  0  0  0  0
    0.5786   -4.8495   31.7532 C   0  0  0  0  0  0  0  0  0  0  0  0
    0.4651   -5.1685   33.1687 C   0  0  0  0  0  0  0  0  0  0  0  0
   -0.2042   -6.2717   33.5626 C   0  0  0  0  0  0  0  0  0  0  0  0
   -0.4988   -6.6255   34.8738 N   0  0  0  0  0  0  0  0  0  0  0  0
   -0.5724   -5.8114   35.9467 C   0  0  0  0  0  0  0  0  0  0  0  0
   -0.2036   -6.0341   37.1830 N   0  0  0  0  0  0  0  0  0  0  0  0
   -0.5232   -4.9165   37.9223 N   0  0  0  0  0  0  0  0  0  0  0  0
   -1.1369   -4.0492   37.1359 C   0  0  0  0  0  0  0  0  0  0  0  0
   -1.7140   -2.7602   37.5176 C   0  0  0  0  0  0  0  0  0  0  0  0
   -2.2373   -1.8624   36.5731 C   0  0  0  0  0  0  0  0  0  0  0  0
   -2.7958   -0.6458   36.9778 C   0  0  0  0  0  0  0  0  0  0  0  0
   -2.8388   -0.3113   38.3291 C   0  0  0  0  0  0  0  0  0  0  0  0
   -2.3255   -1.1918   39.2776 C   0  0  0  0  0  0  0  0  0  0  0  0
   -1.7673   -2.4069   38.8735 C   0  0  0  0  0  0  0  0  0  0  0  0
   -1.1888   -4.5934   35.8791 N   0  0  0  0  0  0  0  0  0  0  0  0
   -0.6416   -7.1184   32.5331 N   0  0  0  0  0  0  0  0  0  0  0  0
   -1.5094   -8.1635   32.5603 C   0  0  0  0  0  0  0  0  0  0  0  0
   -1.6104   -8.7076   31.3731 N   0  0  0  0  0  0  0  0  0  0  0  0
   -0.8798   -7.9418   30.5008 N   0  0  0  0  0  0  0  0  0  0  0  0
   -0.3343   -6.9646   31.1914 C   0  0  0  0  0  0  0  0  0  0  0  0
    0.3115   -5.7671   30.8043 C   0  0  0  0  0  0  0  0  0  0  0  0
   -1.0083   -2.6205   29.5926 N   0  0  0  0  0  0  0  0  0  0  0  0
    0.0066   -2.1242   28.6956 C   0  0  0  0  0  0  0  0  0  0  0  0
   -0.2999   -0.7167   28.2605 C   0  0  0  0  0  0  0  0  0  0  0  0
    0.6283    0.3247   28.4822 C   0  0  0  0  0  0  0  0  0  0  0  0
    0.3572    1.6271   28.0535 C   0  0  0  0  0  0  0  0  0  0  0  0
   -0.8397    1.8555   27.4100 C   0  0  0  0  0  0  0  0  0  0  0  0
   -1.7482    0.8508   27.1908 C   0  0  0  0  0  0  0  0  0  0  0  0
   -1.5102   -0.4397   27.6020 C   0  0  0  0  0  0  0  0  0  0  0  0
   -2.8485    1.2823   26.5227 O   0  0  0  0  0  0  0  0  0  0  0  0
   -2.5676    2.6898   26.4120 C   0  0  0  0  0  0  0  0  0  0  0  0
   -1.2574    3.0477   26.9084 O   0  0  0  0  0  0  0  0  0  0  0  0
   -2.8444   -0.9917   32.2358 H   0  0  0  0  0  0  0  0  0  0  0  0
   -1.9350    0.5090   32.3972 H   0  0  0  0  0  0  0  0  0  0  0  0
   -2.2313   -0.1842   30.7860 H   0  0  0  0  0  0  0  0  0  0  0  0
   -0.4610   -1.3191   33.0142 H   0  0  0  0  0  0  0  0  0  0  0  0
    0.1229   -0.6185   31.4921 H   0  0  0  0  0  0  0  0  0  0  0  0
    0.8729   -4.4477   33.8686 H   0  0  0  0  0  0  0  0  0  0  0  0
   -0.3164   -7.6076   35.0917 H   0  0  0  0  0  0  0  0  0  0  0  0
   -2.2289   -2.0911   35.5107 H   0  0  0  0  0  0  0  0  0  0  0  0
   -3.1995    0.0393   36.2373 H   0  0  0  0  0  0  0  0  0  0  0  0
   -3.2730    0.6333   38.6463 H   0  0  0  0  0  0  0  0  0  0  0  0
   -2.3603   -0.9401   40.3348 H   0  0  0  0  0  0  0  0  0  0  0  0
   -1.3799   -3.0888   39.6303 H   0  0  0  0  0  0  0  0  0  0  0  0
   -1.7112   -4.2449   35.0870 H   0  0  0  0  0  0  0  0  0  0  0  0
   -2.0499   -8.4527   33.4446 H   0  0  0  0  0  0  0  0  0  0  0  0
    0.3330   -5.5046   29.7556 H   0  0  0  0  0  0  0  0  0  0  0  0
   -1.5014   -3.4098   29.1897 H   0  0  0  0  0  0  0  0  0  0  0  0
    1.0099   -2.1731   29.1328 H   0  0  0  0  0  0  0  0  0  0  0  0
    0.0503   -2.7689   27.8171 H   0  0  0  0  0  0  0  0  0  0  0  0
    1.5715    0.1190   28.9835 H   0  0  0  0  0  0  0  0  0  0  0  0
    1.0624    2.4343   28.2143 H   0  0  0  0  0  0  0  0  0  0  0  0
   -2.2304   -1.2241   27.3854 H   0  0  0  0  0  0  0  0  0  0  0  0
   -2.6300    2.9778   25.3566 H   0  0  0  0  0  0  0  0  0  0  0  0
   -3.3199    3.2495   26.9747 H   0  0  0  0  0  0  0  0  0  0  0  0
  1  2  1  0
  2  3  1  0
  3  4  2  0
  3  5  2  0
  5  6  1  0
  6  7  1  0
  7  8  2  0
  8  9  1  0
  9 10  1  0
 10 11  2  0
 11 12  1  0
 12 13  2  0
 13 14  1  0
 14 15  2  0
 15 16  1  0
 16 17  2  0
 17 18  1  0
 18 19  2  0
 13 20  1  0
  8 21  1  0
 21 22  1  0
 22 23  2  0
 23 24  1  0
 24 25  2  0
 25 26  1  0
  3 27  1  0
 27 28  1  0
 28 29  1  0
 29 30  2  0
 30 31  1  0
 31 32  2  0
 32 33  1  0
 33 34  2  0
 33 35  1  0
 35 36  1  0
 36 37  1  0
 26  6  2  0
 34 29  1  0
 20 10  1  0
 25 21  1  0
 37 32  1  0
 19 14  1  0
  1 38  1  0
  1 39  1  0
  1 40  1  0
  2 41  1  0
  2 42  1  0
  7 43  1  0
  9 44  1  0
 15 45  1  0
 16 46  1  0
 17 47  1  0
 18 48  1  0
 19 49  1  0
 20 50  1  0
 22 51  1  0
 26 52  1  0
 27 53  1  0
 28 54  1  0
 28 55  1  0
 30 56  1  0
 31 57  1  0
 34 58  1  0
 36 59  1  0
 36 60  1  0
M  END
>  <Energy>  (301) 
-53.775754488504873

>  <compound_id>  (301) 
1627

>  <target_id>  (301) 
1

>  <reference_id>  (301) 
13

>  <inspiration_ids>  (301) 
[13, 132]

>  <energy_score>  (301) 
-86.36794172529972

>  <distance_score>  (301) 
1.1392775246361753

>  <path>  (301) 
/opt/xchem-fragalysis-2/maxwin/BulkDock/SCRATCH/505732/C1627-P13/C1627-P13.minimised.mol

>  <scratch_subdir>  (301) 
/opt/xchem-fragalysis-2/maxwin/BulkDock/SCRATCH/505732/C1627-P13

>  <fragmenstein_runtime>  (301) 
5.786978244781494

>  <fragmenstein_outcome>  (301) 
too moved

>  <fragmenstein_mode>  (301) 
expansion

>  <fragmenstein_error>  (301) 


$$$$
C1627-P132
     RDKit          3D

 60 65  0  0  0  0  0  0  0  0999 V2000
   -1.9432   -0.2538   31.8340 C   0  0  0  0  0  0  0  0  0  0  0  0
   -0.6960   -1.0810   32.0551 C   0  0  0  0  0  0  0  0  0  0  0  0
   -0.8002   -2.6870   31.3108 S   0  0  0  0  0  0  0  0  0  0  0  0
   -2.0675   -3.2927   31.6747 O   0  0  0  0  0  0  0  0  0  0  0  0
    0.5625   -3.4004   31.4671 N   0  0  0  0  0  0  0  0  0  0  0  0
    0.4896   -4.8178   31.8163 C   0  0  0  0  0  0  0  0  0  0  0  0
    0.3638   -5.2001   33.2149 C   0  0  0  0  0  0  0  0  0  0  0  0
   -0.2599   -6.3472   33.5568 C   0  0  0  0  0  0  0  0  0  0  0  0
   -0.5323   -6.7790   34.8493 N   0  0  0  0  0  0  0  0  0  0  0  0
   -0.5916   -6.0391   35.9751 C   0  0  0  0  0  0  0  0  0  0  0  0
   -0.2243   -6.3519   37.1926 N   0  0  0  0  0  0  0  0  0  0  0  0
   -0.5301   -5.2841   38.0087 N   0  0  0  0  0  0  0  0  0  0  0  0
   -1.1326   -4.3565   37.2843 C   0  0  0  0  0  0  0  0  0  0  0  0
   -1.6949   -3.0889   37.7495 C   0  0  0  0  0  0  0  0  0  0  0  0
   -1.8087   -2.8511   39.1263 C   0  0  0  0  0  0  0  0  0  0  0  0
   -2.3559   -1.6588   39.6062 C   0  0  0  0  0  0  0  0  0  0  0  0
   -2.7962   -0.6852   38.7136 C   0  0  0  0  0  0  0  0  0  0  0  0
   -2.6906   -0.9036   37.3421 C   0  0  0  0  0  0  0  0  0  0  0  0
   -2.1431   -2.0973   36.8617 C   0  0  0  0  0  0  0  0  0  0  0  0
   -1.1940   -4.8131   35.9942 N   0  0  0  0  0  0  0  0  0  0  0  0
   -0.6552   -7.1648   32.4874 N   0  0  0  0  0  0  0  0  0  0  0  0
   -1.4603   -8.2599   32.4611 C   0  0  0  0  0  0  0  0  0  0  0  0
   -1.5234   -8.7487   31.2469 N   0  0  0  0  0  0  0  0  0  0  0  0
   -0.8297   -7.9080   30.4166 N   0  0  0  0  0  0  0  0  0  0  0  0
   -0.3440   -6.9364   31.1562 C   0  0  0  0  0  0  0  0  0  0  0  0
    0.2594   -5.7009   30.8260 C   0  0  0  0  0  0  0  0  0  0  0  0
   -0.9312   -2.4956   29.6621 N   0  0  0  0  0  0  0  0  0  0  0  0
    0.1553   -1.9620   28.8702 C   0  0  0  0  0  0  0  0  0  0  0  0
   -0.1341   -0.5560   28.4170 C   0  0  0  0  0  0  0  0  0  0  0  0
    0.7840    0.4858   28.6694 C   0  0  0  0  0  0  0  0  0  0  0  0
    0.5300    1.7887   28.2286 C   0  0  0  0  0  0  0  0  0  0  0  0
   -0.6394    2.0196   27.5386 C   0  0  0  0  0  0  0  0  0  0  0  0
   -1.5324    1.0132   27.2785 C   0  0  0  0  0  0  0  0  0  0  0  0
   -1.3094   -0.2779   27.7024 C   0  0  0  0  0  0  0  0  0  0  0  0
   -2.5983    1.4444   26.5546 O   0  0  0  0  0  0  0  0  0  0  0  0
   -2.3222    2.8533   26.4654 C   0  0  0  0  0  0  0  0  0  0  0  0
   -1.0391    3.2117   27.0223 O   0  0  0  0  0  0  0  0  0  0  0  0
   -2.8320   -0.7583   32.2253 H   0  0  0  0  0  0  0  0  0  0  0  0
   -1.8424    0.6995   32.3579 H   0  0  0  0  0  0  0  0  0  0  0  0
   -2.1102   -0.0497   30.7734 H   0  0  0  0  0  0  0  0  0  0  0  0
   -0.5450   -1.2429   33.1277 H   0  0  0  0  0  0  0  0  0  0  0  0
    0.1872   -0.5736   31.6571 H   0  0  0  0  0  0  0  0  0  0  0  0
    0.7444   -4.4980   33.9483 H   0  0  0  0  0  0  0  0  0  0  0  0
   -0.3992   -7.7805   35.0005 H   0  0  0  0  0  0  0  0  0  0  0  0
   -1.4830   -3.6089   39.8384 H   0  0  0  0  0  0  0  0  0  0  0  0
   -2.4404   -1.4982   40.6781 H   0  0  0  0  0  0  0  0  0  0  0  0
   -3.2219    0.2419   39.0887 H   0  0  0  0  0  0  0  0  0  0  0  0
   -3.0358   -0.1441   36.6453 H   0  0  0  0  0  0  0  0  0  0  0  0
   -2.0791   -2.2321   35.7854 H   0  0  0  0  0  0  0  0  0  0  0  0
   -1.7191   -4.4088   35.2307 H   0  0  0  0  0  0  0  0  0  0  0  0
   -1.9827   -8.6324   33.3260 H   0  0  0  0  0  0  0  0  0  0  0  0
    0.3072   -5.4094   29.7844 H   0  0  0  0  0  0  0  0  0  0  0  0
   -1.3208   -3.3256   29.2305 H   0  0  0  0  0  0  0  0  0  0  0  0
    1.1107   -1.9877   29.4061 H   0  0  0  0  0  0  0  0  0  0  0  0
    0.3070   -2.5982   28.0011 H   0  0  0  0  0  0  0  0  0  0  0  0
    1.7089    0.2831   29.2054 H   0  0  0  0  0  0  0  0  0  0  0  0
    1.2315    2.5940   28.4157 H   0  0  0  0  0  0  0  0  0  0  0  0
   -2.0125   -1.0674   27.4553 H   0  0  0  0  0  0  0  0  0  0  0  0
   -2.3366    3.1457   25.4094 H   0  0  0  0  0  0  0  0  0  0  0  0
   -3.1052    3.4066   26.9925 H   0  0  0  0  0  0  0  0  0  0  0  0
  1  2  1  0
  2  3  1  0
  3  4  2  0
  3  5  2  0
  5  6  1  0
  6  7  1  0
  7  8  2  0
  8  9  1  0
  9 10  1  0
 10 11  2  0
 11 12  1  0
 12 13  2  0
 13 14  1  0
 14 15  2  0
 15 16  1  0
 16 17  2  0
 17 18  1  0
 18 19  2  0
 13 20  1  0
  8 21  1  0
 21 22  1  0
 22 23  2  0
 23 24  1  0
 24 25  2  0
 25 26  1  0
  3 27  1  0
 27 28  1  0
 28 29  1  0
 29 30  2  0
 30 31  1  0
 31 32  2  0
 32 33  1  0
 33 34  2  0
 33 35  1  0
 35 36  1  0
 36 37  1  0
 26  6  2  0
 34 29  1  0
 20 10  1  0
 25 21  1  0
 37 32  1  0
 19 14  1  0
  1 38  1  0
  1 39  1  0
  1 40  1  0
  2 41  1  0
  2 42  1  0
  7 43  1  0
  9 44  1  0
 15 45  1  0
 16 46  1  0
 17 47  1  0
 18 48  1  0
 19 49  1  0
 20 50  1  0
 22 51  1  0
 26 52  1  0
 27 53  1  0
 28 54  1  0
 28 55  1  0
 30 56  1  0
 31 57  1  0
 34 58  1  0
 36 59  1  0
 36 60  1  0
M  END
>  <Energy>  (302) 
-55.924040297864778

>  <compound_id>  (302) 
1627

>  <target_id>  (302) 
1

>  <reference_id>  (302) 
132

>  <inspiration_ids>  (302) 
[13, 132]

>  <energy_score>  (302) 
-88.51622753465935

>  <distance_score>  (302) 
1.2363259758541236

>  <path>  (302) 
/opt/xchem-fragalysis-2/maxwin/BulkDock/SCRATCH/505732/C1627-P132/C1627-P132.minimised.mol

>  <scratch_subdir>  (302) 
/opt/xchem-fragalysis-2/maxwin/BulkDock/SCRATCH/505732/C1627-P132

>  <fragmenstein_runtime>  (302) 
4.334353446960449

>  <fragmenstein_outcome>  (302) 
too moved

>  <fragmenstein_mode>  (302) 
expansion

>  <fragmenstein_error>  (302) 


$$$$
C1628-P13
     RDKit          3D

 70 75  0  0  0  0  0  0  0  0999 V2000
   -0.8836    0.3991   33.4220 C   0  0  0  0  0  0  0  0  0  0  0  0
   -0.7527   -1.0475   32.9981 C   0  0  0  0  0  0  0  0  0  0  0  0
   -1.5403   -1.3849   31.4417 S   0  0  0  0  0  0  0  0  0  0  0  0
   -2.8756   -0.8394   31.5276 O   0  0  0  0  0  0  0  0  0  0  0  0
   -1.1894   -2.7864   30.9718 N   0  0  0  0  0  0  0  0  0  0  0  0
    0.1830   -3.2570   30.8350 C   0  0  0  0  0  0  0  0  0  0  0  0
    0.1365   -4.6543   31.3691 C   0  0  0  0  0  0  0  0  0  0  0  0
    0.0418   -4.8101   32.8141 C   0  0  0  0  0  0  0  0  0  0  0  0
   -0.4206   -5.9542   33.3451 C   0  0  0  0  0  0  0  0  0  0  0  0
   -0.4405   -6.1235   34.7897 N   0  0  0  0  0  0  0  0  0  0  0  0
    0.0080   -7.4328   35.3520 C   0  0  0  0  0  0  0  0  0  0  0  0
    1.4595   -7.3790   35.8507 C   0  0  0  0  0  0  0  0  0  0  0  0
    2.2676   -6.2149   35.2749 C   0  0  0  0  0  0  0  0  0  0  0  0
    1.7632   -4.8565   35.8054 C   0  0  0  0  0  0  0  0  0  0  0  0
    2.3290   -3.6055   35.1432 C   0  0  0  0  0  0  0  0  0  0  0  0
    3.0593   -3.6249   33.9421 C   0  0  0  0  0  0  0  0  0  0  0  0
    3.5565   -2.4444   33.3800 C   0  0  0  0  0  0  0  0  0  0  0  0
    3.3495   -1.2248   34.0153 C   0  0  0  0  0  0  0  0  0  0  0  0
    2.6509   -1.1847   35.2165 C   0  0  0  0  0  0  0  0  0  0  0  0
    2.1523   -2.3622   35.7769 C   0  0  0  0  0  0  0  0  0  0  0  0
   -0.0750   -4.8220   35.8586 S   0  0  0  0  0  0  0  0  0  0  0  0
   -0.5984   -3.5732   35.3505 O   0  0  0  0  0  0  0  0  0  0  0  0
   -0.4525   -5.2488   37.1941 O   0  0  0  0  0  0  0  0  0  0  0  0
   -0.7918   -6.9595   32.4335 N   0  0  0  0  0  0  0  0  0  0  0  0
   -1.5193   -8.1028   32.5717 C   0  0  0  0  0  0  0  0  0  0  0  0
   -1.5275   -8.7888   31.4523 N   0  0  0  0  0  0  0  0  0  0  0  0
   -0.8878   -8.0380   30.5021 N   0  0  0  0  0  0  0  0  0  0  0  0
   -0.5127   -6.9176   31.0757 C   0  0  0  0  0  0  0  0  0  0  0  0
   -0.0248   -5.7045   30.5490 C   0  0  0  0  0  0  0  0  0  0  0  0
   -0.8452   -0.3840   30.2775 N   0  0  0  0  0  0  0  0  0  0  0  0
   -0.8177   -0.7805   28.8702 C   0  0  0  0  0  0  0  0  0  0  0  0
   -0.7146    0.4549   28.0114 C   0  0  0  0  0  0  0  0  0  0  0  0
    0.3926    1.3290   28.1131 C   0  0  0  0  0  0  0  0  0  0  0  0
    0.4316    2.5201   27.3829 C   0  0  0  0  0  0  0  0  0  0  0  0
   -0.6428    2.8061   26.5690 C   0  0  0  0  0  0  0  0  0  0  0  0
   -1.7132    1.9539   26.4579 C   0  0  0  0  0  0  0  0  0  0  0  0
   -1.7711    0.7697   27.1498 C   0  0  0  0  0  0  0  0  0  0  0  0
   -2.6518    2.4029   25.5886 O   0  0  0  0  0  0  0  0  0  0  0  0
   -2.0921    3.6750   25.2181 C   0  0  0  0  0  0  0  0  0  0  0  0
   -0.7780    3.9049   25.7796 O   0  0  0  0  0  0  0  0  0  0  0  0
   -0.3889    0.5552   34.3859 H   0  0  0  0  0  0  0  0  0  0  0  0
   -0.4203    1.0712   32.6936 H   0  0  0  0  0  0  0  0  0  0  0  0
   -1.9334    0.6855   33.5352 H   0  0  0  0  0  0  0  0  0  0  0  0
   -1.2402   -1.6896   33.7353 H   0  0  0  0  0  0  0  0  0  0  0  0
    0.3015   -1.3190   32.9329 H   0  0  0  0  0  0  0  0  0  0  0  0
    0.4763   -3.2555   29.7805 H   0  0  0  0  0  0  0  0  0  0  0  0
    0.9219   -2.6575   31.3723 H   0  0  0  0  0  0  0  0  0  0  0  0
    0.3357   -3.9325   33.3634 H   0  0  0  0  0  0  0  0  0  0  0  0
   -0.0400   -8.2154   34.6021 H   0  0  0  0  0  0  0  0  0  0  0  0
   -0.6705   -7.7414   36.1548 H   0  0  0  0  0  0  0  0  0  0  0  0
    1.9557   -8.3264   35.6082 H   0  0  0  0  0  0  0  0  0  0  0  0
    1.4640   -7.3163   36.9463 H   0  0  0  0  0  0  0  0  0  0  0  0
    3.3228   -6.3329   35.5517 H   0  0  0  0  0  0  0  0  0  0  0  0
    2.2345   -6.2782   34.1827 H   0  0  0  0  0  0  0  0  0  0  0  0
    2.0592   -4.8092   36.8638 H   0  0  0  0  0  0  0  0  0  0  0  0
    3.2636   -4.5520   33.4144 H   0  0  0  0  0  0  0  0  0  0  0  0
    4.1207   -2.4792   32.4510 H   0  0  0  0  0  0  0  0  0  0  0  0
    3.7427   -0.3080   33.5833 H   0  0  0  0  0  0  0  0  0  0  0  0
    2.4931   -0.2355   35.7234 H   0  0  0  0  0  0  0  0  0  0  0  0
    1.6072   -2.2934   36.7186 H   0  0  0  0  0  0  0  0  0  0  0  0
   -2.0243   -8.3626   33.4867 H   0  0  0  0  0  0  0  0  0  0  0  0
   -0.0345   -5.5540   29.4827 H   0  0  0  0  0  0  0  0  0  0  0  0
   -1.4817    0.4099   30.3050 H   0  0  0  0  0  0  0  0  0  0  0  0
    0.0466   -1.4156   28.6558 H   0  0  0  0  0  0  0  0  0  0  0  0
   -1.7212   -1.3431   28.6059 H   0  0  0  0  0  0  0  0  0  0  0  0
    1.2133    1.0880   28.7844 H   0  0  0  0  0  0  0  0  0  0  0  0
    1.2669    3.2055   27.4622 H   0  0  0  0  0  0  0  0  0  0  0  0
   -2.6168    0.1057   27.0235 H   0  0  0  0  0  0  0  0  0  0  0  0
   -2.0120    3.7155   24.1258 H   0  0  0  0  0  0  0  0  0  0  0  0
   -2.7636    4.4720   25.5493 H   0  0  0  0  0  0  0  0  0  0  0  0
  1  2  1  0
  2  3  1  0
  3  4  2  0
  3  5  2  0
  5  6  1  0
  6  7  1  0
  7  8  1  0
  8  9  2  0
  9 10  1  0
 10 11  1  0
 11 12  1  0
 12 13  1  0
 13 14  1  0
 14 15  1  0
 15 16  2  0
 16 17  1  0
 17 18  2  0
 18 19  1  0
 19 20  2  0
 14 21  1  0
 21 22  2  0
 21 23  2  0
  9 24  1  0
 24 25  1  0
 25 26  2  0
 26 27  1  0
 27 28  2  0
 28 29  1  0
  3 30  1  0
 30 31  1  0
 31 32  1  0
 32 33  2  0
 33 34  1  0
 34 35  2  0
 35 36  1  0
 36 37  2  0
 36 38  1  0
 38 39  1  0
 39 40  1  0
 29  7  2  0
 37 32  1  0
 21 10  1  0
 28 24  1  0
 40 35  1  0
 20 15  1  0
  1 41  1  0
  1 42  1  0
  1 43  1  0
  2 44  1  0
  2 45  1  0
  6 46  1  0
  6 47  1  0
  8 48  1  0
 11 49  1  0
 11 50  1  0
 12 51  1  0
 12 52  1  0
 13 53  1  0
 13 54  1  0
 14 55  1  0
 16 56  1  0
 17 57  1  0
 18 58  1  0
 19 59  1  0
 20 60  1  0
 25 61  1  0
 29 62  1  0
 30 63  1  0
 31 64  1  0
 31 65  1  0
 33 66  1  0
 34 67  1  0
 37 68  1  0
 39 69  1  0
 39 70  1  0
M  END
>  <Energy>  (303) 
-13.268244612614804

>  <compound_id>  (303) 
1628

>  <target_id>  (303) 
1

>  <reference_id>  (303) 
13

>  <inspiration_ids>  (303) 
[13, 133]

>  <energy_score>  (303) 
-101.27198392370093

>  <distance_score>  (303) 
2.522158054077241

>  <path>  (303) 
/opt/xchem-fragalysis-2/maxwin/BulkDock/SCRATCH/505732/C1628-P13/C1628-P13.minimised.mol

>  <scratch_subdir>  (303) 
/opt/xchem-fragalysis-2/maxwin/BulkDock/SCRATCH/505732/C1628-P13

>  <fragmenstein_runtime>  (303) 
10.5090913772583

>  <fragmenstein_outcome>  (303) 
too moved

>  <fragmenstein_mode>  (303) 
expansion

>  <fragmenstein_error>  (303) 


$$$$
C1628-P133
     RDKit          3D

 70 75  0  0  0  0  0  0  0  0999 V2000
    0.7675    1.3424   31.6305 C   0  0  0  0  0  0  0  0  0  0  0  0
    1.5730    0.0753   31.4296 C   0  0  0  0  0  0  0  0  0  0  0  0
    0.5615   -1.3771   31.2773 S   0  0  0  0  0  0  0  0  0  0  0  0
    1.4227   -2.5154   31.0496 O   0  0  0  0  0  0  0  0  0  0  0  0
   -0.5269   -1.3160   32.3458 N   0  0  0  0  0  0  0  0  0  0  0  0
   -1.6067   -2.2897   32.3975 C   0  0  0  0  0  0  0  0  0  0  0  0
   -1.0903   -3.6997   32.5313 C   0  0  0  0  0  0  0  0  0  0  0  0
   -0.7670   -4.1695   33.8793 C   0  0  0  0  0  0  0  0  0  0  0  0
   -0.5297   -5.4749   34.1110 C   0  0  0  0  0  0  0  0  0  0  0  0
    0.0260   -5.9241   35.3888 N   0  0  0  0  0  0  0  0  0  0  0  0
    1.0398   -7.0242   35.3290 C   0  0  0  0  0  0  0  0  0  0  0  0
    2.2725   -6.5617   34.5440 C   0  0  0  0  0  0  0  0  0  0  0  0
    2.5533   -5.0538   34.6031 C   0  0  0  0  0  0  0  0  0  0  0  0
    2.2431   -4.4190   35.9649 C   0  0  0  0  0  0  0  0  0  0  0  0
    2.5171   -2.9334   36.0303 C   0  0  0  0  0  0  0  0  0  0  0  0
    2.0327   -2.0293   35.0742 C   0  0  0  0  0  0  0  0  0  0  0  0
    2.2831   -0.6618   35.1948 C   0  0  0  0  0  0  0  0  0  0  0  0
    3.0546   -0.1807   36.2460 C   0  0  0  0  0  0  0  0  0  0  0  0
    3.5594   -1.0660   37.1921 C   0  0  0  0  0  0  0  0  0  0  0  0
    3.2859   -2.4302   37.0909 C   0  0  0  0  0  0  0  0  0  0  0  0
    0.5643   -4.7873   36.6000 S   0  0  0  0  0  0  0  0  0  0  0  0
   -0.2951   -3.6276   36.6445 O   0  0  0  0  0  0  0  0  0  0  0  0
    0.7504   -5.5584   37.8182 O   0  0  0  0  0  0  0  0  0  0  0  0
   -0.6948   -6.3409   33.0145 N   0  0  0  0  0  0  0  0  0  0  0  0
   -0.8969   -7.6883   32.9127 C   0  0  0  0  0  0  0  0  0  0  0  0
   -0.8321   -8.0703   31.6574 N   0  0  0  0  0  0  0  0  0  0  0  0
   -0.7066   -6.9410   30.8895 N   0  0  0  0  0  0  0  0  0  0  0  0
   -0.7392   -5.9074   31.7020 C   0  0  0  0  0  0  0  0  0  0  0  0
   -0.9289   -4.5236   31.4760 C   0  0  0  0  0  0  0  0  0  0  0  0
   -0.2938   -1.2614   29.8415 N   0  0  0  0  0  0  0  0  0  0  0  0
    0.4069   -1.0989   28.5827 C   0  0  0  0  0  0  0  0  0  0  0  0
    0.0070    0.2003   27.9452 C   0  0  0  0  0  0  0  0  0  0  0  0
    0.8800    1.3104   27.9266 C   0  0  0  0  0  0  0  0  0  0  0  0
    0.4974    2.5098   27.3203 C   0  0  0  0  0  0  0  0  0  0  0  0
   -0.7478    2.5615   26.7338 C   0  0  0  0  0  0  0  0  0  0  0  0
   -1.6069    1.4916   26.7617 C   0  0  0  0  0  0  0  0  0  0  0  0
   -1.2659    0.3070   27.3670 C   0  0  0  0  0  0  0  0  0  0  0  0
   -2.7571    1.7257   26.0831 O   0  0  0  0  0  0  0  0  0  0  0  0
   -2.5125    3.0544   25.5897 C   0  0  0  0  0  0  0  0  0  0  0  0
   -1.2536    3.6101   26.0334 O   0  0  0  0  0  0  0  0  0  0  0  0
    0.2114    1.3208   32.5727 H   0  0  0  0  0  0  0  0  0  0  0  0
    1.4328    2.2110   31.6576 H   0  0  0  0  0  0  0  0  0  0  0  0
    0.0513    1.4898   30.8195 H   0  0  0  0  0  0  0  0  0  0  0  0
    2.2521   -0.0899   32.2688 H   0  0  0  0  0  0  0  0  0  0  0  0
    2.1932    0.1474   30.5327 H   0  0  0  0  0  0  0  0  0  0  0  0
   -2.2483   -2.1985   31.5128 H   0  0  0  0  0  0  0  0  0  0  0  0
   -2.2592   -2.0488   33.2458 H   0  0  0  0  0  0  0  0  0  0  0  0
   -0.7090   -3.3688   34.5989 H   0  0  0  0  0  0  0  0  0  0  0  0
    0.6260   -7.9398   34.9192 H   0  0  0  0  0  0  0  0  0  0  0  0
    1.3427   -7.3245   36.3388 H   0  0  0  0  0  0  0  0  0  0  0  0
    2.1587   -6.8324   33.4895 H   0  0  0  0  0  0  0  0  0  0  0  0
    3.1458   -7.1159   34.9085 H   0  0  0  0  0  0  0  0  0  0  0  0
    3.6096   -4.8875   34.3527 H   0  0  0  0  0  0  0  0  0  0  0  0
    1.9986   -4.5572   33.8010 H   0  0  0  0  0  0  0  0  0  0  0  0
    2.9060   -4.9240   36.6825 H   0  0  0  0  0  0  0  0  0  0  0  0
    1.4270   -2.3631   34.2380 H   0  0  0  0  0  0  0  0  0  0  0  0
    1.8525    0.0340   34.4819 H   0  0  0  0  0  0  0  0  0  0  0  0
    3.2454    0.8848   36.3396 H   0  0  0  0  0  0  0  0  0  0  0  0
    4.1511   -0.6914   38.0236 H   0  0  0  0  0  0  0  0  0  0  0  0
    3.6755   -3.0942   37.8608 H   0  0  0  0  0  0  0  0  0  0  0  0
   -1.1074   -8.3181   33.7623 H   0  0  0  0  0  0  0  0  0  0  0  0
   -1.0734   -4.1906   30.4552 H   0  0  0  0  0  0  0  0  0  0  0  0
   -0.8790   -2.0777   29.7511 H   0  0  0  0  0  0  0  0  0  0  0  0
    1.4961   -1.1495   28.6951 H   0  0  0  0  0  0  0  0  0  0  0  0
    0.1499   -1.9278   27.9166 H   0  0  0  0  0  0  0  0  0  0  0  0
    1.8667    1.2414   28.3762 H   0  0  0  0  0  0  0  0  0  0  0  0
    1.1595    3.3671   27.2913 H   0  0  0  0  0  0  0  0  0  0  0  0
   -1.9464   -0.5381   27.3407 H   0  0  0  0  0  0  0  0  0  0  0  0
   -2.5103    3.0299   24.4938 H   0  0  0  0  0  0  0  0  0  0  0  0
   -3.3238    3.7005   25.9193 H   0  0  0  0  0  0  0  0  0  0  0  0
  1  2  1  0
  2  3  1  0
  3  4  2  0
  3  5  2  0
  5  6  1  0
  6  7  1  0
  7  8  1  0
  8  9  2  0
  9 10  1  0
 10 11  1  0
 11 12  1  0
 12 13  1  0
 13 14  1  0
 14 15  1  0
 15 16  2  0
 16 17  1  0
 17 18  2  0
 18 19  1  0
 19 20  2  0
 14 21  1  0
 21 22  2  0
 21 23  2  0
  9 24  1  0
 24 25  1  0
 25 26  2  0
 26 27  1  0
 27 28  2  0
 28 29  1  0
  3 30  1  0
 30 31  1  0
 31 32  1  0
 32 33  2  0
 33 34  1  0
 34 35  2  0
 35 36  1  0
 36 37  2  0
 36 38  1  0
 38 39  1  0
 39 40  1  0
 29  7  2  0
 37 32  1  0
 21 10  1  0
 28 24  1  0
 40 35  1  0
 20 15  1  0
  1 41  1  0
  1 42  1  0
  1 43  1  0
  2 44  1  0
  2 45  1  0
  6 46  1  0
  6 47  1  0
  8 48  1  0
 11 49  1  0
 11 50  1  0
 12 51  1  0
 12 52  1  0
 13 53  1  0
 13 54  1  0
 14 55  1  0
 16 56  1  0
 17 57  1  0
 18 58  1  0
 19 59  1  0
 20 60  1  0
 25 61  1  0
 29 62  1  0
 30 63  1  0
 31 64  1  0
 31 65  1  0
 33 66  1  0
 34 67  1  0
 37 68  1  0
 39 69  1  0
 39 70  1  0
M  END
>  <Energy>  (304) 
-9.1850002345563286

>  <compound_id>  (304) 
1628

>  <target_id>  (304) 
1

>  <reference_id>  (304) 
133

>  <inspiration_ids>  (304) 
[13, 133]

>  <energy_score>  (304) 
-97.18873954564305

>  <distance_score>  (304) 
2.6998202153320205

>  <path>  (304) 
/opt/xchem-fragalysis-2/maxwin/BulkDock/SCRATCH/505732/C1628-P133/C1628-P133.minimised.mol

>  <scratch_subdir>  (304) 
/opt/xchem-fragalysis-2/maxwin/BulkDock/SCRATCH/505732/C1628-P133

>  <fragmenstein_runtime>  (304) 
10.043587446212769

>  <fragmenstein_outcome>  (304) 
too moved

>  <fragmenstein_mode>  (304) 
expansion

>  <fragmenstein_error>  (304) 


$$$$
C1629-P13
     RDKit          3D

 70 75  0  0  0  0  0  0  0  0999 V2000
   -2.2799   -0.4764   31.8058 C   0  0  0  0  0  0  0  0  0  0  0  0
   -0.7865   -0.6869   31.8425 C   0  0  0  0  0  0  0  0  0  0  0  0
   -0.3054   -2.2998   31.3304 S   0  0  0  0  0  0  0  0  0  0  0  0
    1.1352   -2.4046   31.3886 O   0  0  0  0  0  0  0  0  0  0  0  0
   -1.2343   -3.3232   31.9688 N   0  0  0  0  0  0  0  0  0  0  0  0
   -0.7611   -4.6836   31.8774 C   0  0  0  0  0  0  0  0  0  0  0  0
   -0.0359   -5.1097   33.1443 C   0  0  0  0  0  0  0  0  0  0  0  0
   -1.0086   -5.5413   34.1872 C   0  0  0  0  0  0  0  0  0  0  0  0
   -1.4825   -6.8102   34.1371 C   0  0  0  0  0  0  0  0  0  0  0  0
   -1.0558   -7.6065   33.0357 C   0  0  0  0  0  0  0  0  0  0  0  0
   -1.7025   -8.3894   32.1989 N   0  0  0  0  0  0  0  0  0  0  0  0
   -0.9671   -8.4710   31.0464 N   0  0  0  0  0  0  0  0  0  0  0  0
    0.1241   -7.7646   31.2287 C   0  0  0  0  0  0  0  0  0  0  0  0
    0.2020   -7.2810   32.5196 N   0  0  0  0  0  0  0  0  0  0  0  0
    0.8824   -6.0948   32.9320 C   0  0  0  0  0  0  0  0  0  0  0  0
    1.8489   -6.0120   34.0213 N   0  0  0  0  0  0  0  0  0  0  0  0
    3.0296   -5.1433   33.7790 C   0  0  0  0  0  0  0  0  0  0  0  0
    3.4621   -4.4533   35.0679 C   0  0  0  0  0  0  0  0  0  0  0  0
    3.8740   -5.4545   36.1466 C   0  0  0  0  0  0  0  0  0  0  0  0
    2.6964   -6.3391   36.5650 C   0  0  0  0  0  0  0  0  0  0  0  0
    3.0095   -7.3257   37.6750 C   0  0  0  0  0  0  0  0  0  0  0  0
    4.1751   -8.1085   37.6809 C   0  0  0  0  0  0  0  0  0  0  0  0
    4.4206   -9.0151   38.7146 C   0  0  0  0  0  0  0  0  0  0  0  0
    3.5062   -9.1549   39.7551 C   0  0  0  0  0  0  0  0  0  0  0  0
    2.3422   -8.3918   39.7616 C   0  0  0  0  0  0  0  0  0  0  0  0
    2.0940   -7.4856   38.7293 C   0  0  0  0  0  0  0  0  0  0  0  0
    2.0448   -7.2638   35.1543 S   0  0  0  0  0  0  0  0  0  0  0  0
    0.7574   -7.8024   35.5194 O   0  0  0  0  0  0  0  0  0  0  0  0
    3.0642   -8.1445   34.6216 O   0  0  0  0  0  0  0  0  0  0  0  0
   -0.6844   -2.5779   29.7359 N   0  0  0  0  0  0  0  0  0  0  0  0
    0.1027   -2.1031   28.6306 C   0  0  0  0  0  0  0  0  0  0  0  0
   -0.2420   -0.6953   28.2364 C   0  0  0  0  0  0  0  0  0  0  0  0
    0.6684    0.3593   28.4656 C   0  0  0  0  0  0  0  0  0  0  0  0
    0.3678    1.6618   28.0591 C   0  0  0  0  0  0  0  0  0  0  0  0
   -0.8395    1.8758   27.4302 C   0  0  0  0  0  0  0  0  0  0  0  0
   -1.7342    0.8585   27.2124 C   0  0  0  0  0  0  0  0  0  0  0  0
   -1.4707   -0.4321   27.6077 C   0  0  0  0  0  0  0  0  0  0  0  0
   -2.8460    1.2766   26.5554 O   0  0  0  0  0  0  0  0  0  0  0  0
   -2.5833    2.6877   26.4398 C   0  0  0  0  0  0  0  0  0  0  0  0
   -1.2797    3.0643   26.9397 O   0  0  0  0  0  0  0  0  0  0  0  0
   -2.6324   -0.3458   30.7792 H   0  0  0  0  0  0  0  0  0  0  0  0
   -2.5209    0.4091   32.3916 H   0  0  0  0  0  0  0  0  0  0  0  0
   -2.8397   -1.3035   32.2517 H   0  0  0  0  0  0  0  0  0  0  0  0
   -0.2650    0.0496   31.2274 H   0  0  0  0  0  0  0  0  0  0  0  0
   -0.4212   -0.5742   32.8694 H   0  0  0  0  0  0  0  0  0  0  0  0
   -1.6128   -5.3276   31.6807 H   0  0  0  0  0  0  0  0  0  0  0  0
   -0.1132   -4.8327   31.0008 H   0  0  0  0  0  0  0  0  0  0  0  0
   -1.2664   -4.8402   34.9730 H   0  0  0  0  0  0  0  0  0  0  0  0
   -2.1584   -7.2310   34.8655 H   0  0  0  0  0  0  0  0  0  0  0  0
    0.8621   -7.5433   30.4758 H   0  0  0  0  0  0  0  0  0  0  0  0
    3.8476   -5.7388   33.3638 H   0  0  0  0  0  0  0  0  0  0  0  0
    2.7886   -4.3728   33.0371 H   0  0  0  0  0  0  0  0  0  0  0  0
    4.3104   -3.7937   34.8513 H   0  0  0  0  0  0  0  0  0  0  0  0
    2.6499   -3.8185   35.4431 H   0  0  0  0  0  0  0  0  0  0  0  0
    4.2488   -4.9053   37.0191 H   0  0  0  0  0  0  0  0  0  0  0  0
    4.7101   -6.0539   35.7671 H   0  0  0  0  0  0  0  0  0  0  0  0
    1.8720   -5.6898   36.8894 H   0  0  0  0  0  0  0  0  0  0  0  0
    4.9024   -8.0423   36.8748 H   0  0  0  0  0  0  0  0  0  0  0  0
    5.3242   -9.6196   38.7032 H   0  0  0  0  0  0  0  0  0  0  0  0
    3.6966   -9.8642   40.5563 H   0  0  0  0  0  0  0  0  0  0  0  0
    1.6218   -8.5066   40.5677 H   0  0  0  0  0  0  0  0  0  0  0  0
    1.1679   -6.9128   38.7529 H   0  0  0  0  0  0  0  0  0  0  0  0
   -1.6760   -2.4490   29.5707 H   0  0  0  0  0  0  0  0  0  0  0  0
    1.1767   -2.2015   28.8263 H   0  0  0  0  0  0  0  0  0  0  0  0
   -0.0886   -2.7640   27.7854 H   0  0  0  0  0  0  0  0  0  0  0  0
    1.6220    0.1620   28.9513 H   0  0  0  0  0  0  0  0  0  0  0  0
    1.0605    2.4797   28.2208 H   0  0  0  0  0  0  0  0  0  0  0  0
   -2.1778   -1.2260   27.3802 H   0  0  0  0  0  0  0  0  0  0  0  0
   -2.6455    2.9704   25.3829 H   0  0  0  0  0  0  0  0  0  0  0  0
   -3.3446    3.2396   26.9971 H   0  0  0  0  0  0  0  0  0  0  0  0
  1  2  1  0
  2  3  1  0
  3  4  2  0
  3  5  2  0
  5  6  1  0
  6  7  1  0
  7  8  1  0
  8  9  2  0
  9 10  1  0
 10 11  2  0
 11 12  1  0
 12 13  2  0
 13 14  1  0
 14 15  1  0
 15 16  1  0
 16 17  1  0
 17 18  1  0
 18 19  1  0
 19 20  1  0
 20 21  1  0
 21 22  2  0
 22 23  1  0
 23 24  2  0
 24 25  1  0
 25 26  2  0
 20 27  1  0
 27 28  2  0
 27 29  2  0
  3 30  1  0
 30 31  1  0
 31 32  1  0
 32 33  2  0
 33 34  1  0
 34 35  2  0
 35 36  1  0
 36 37  2  0
 36 38  1  0
 38 39  1  0
 39 40  1  0
 15  7  2  0
 27 16  1  0
 37 32  1  0
 14 10  1  0
 26 21  1  0
 40 35  1  0
  1 41  1  0
  1 42  1  0
  1 43  1  0
  2 44  1  0
  2 45  1  0
  6 46  1  0
  6 47  1  0
  8 48  1  0
  9 49  1  0
 13 50  1  0
 17 51  1  0
 17 52  1  0
 18 53  1  0
 18 54  1  0
 19 55  1  0
 19 56  1  0
 20 57  1  0
 22 58  1  0
 23 59  1  0
 24 60  1  0
 25 61  1  0
 26 62  1  0
 30 63  1  0
 31 64  1  0
 31 65  1  0
 33 66  1  0
 34 67  1  0
 37 68  1  0
 39 69  1  0
 39 70  1  0
M  END
>  <Energy>  (305) 
48.069811512564705

>  <compound_id>  (305) 
1629

>  <target_id>  (305) 
1

>  <reference_id>  (305) 
13

>  <inspiration_ids>  (305) 
[13, 135]

>  <energy_score>  (305) 
-0.9376929091800434

>  <distance_score>  (305) 
1.1405474984369872

>  <path>  (305) 
/opt/xchem-fragalysis-2/maxwin/BulkDock/SCRATCH/505732/C1629-P13/C1629-P13.minimised.mol

>  <scratch_subdir>  (305) 
/opt/xchem-fragalysis-2/maxwin/BulkDock/SCRATCH/505732/C1629-P13

>  <fragmenstein_runtime>  (305) 
6.991601943969727

>  <fragmenstein_outcome>  (305) 
too moved

>  <fragmenstein_mode>  (305) 
expansion

>  <fragmenstein_error>  (305) 


$$$$
C1629-P135
     RDKit          3D

 70 75  0  0  0  0  0  0  0  0999 V2000
   -1.9290   -0.1290   31.9113 C   0  0  0  0  0  0  0  0  0  0  0  0
   -0.4284   -0.2826   31.7675 C   0  0  0  0  0  0  0  0  0  0  0  0
    0.0674   -1.9937   31.6819 S   0  0  0  0  0  0  0  0  0  0  0  0
    1.4115   -2.0708   31.1652 O   0  0  0  0  0  0  0  0  0  0  0  0
   -0.3052   -2.5319   33.0542 N   0  0  0  0  0  0  0  0  0  0  0  0
   -1.0359   -3.7161   33.4130 C   0  0  0  0  0  0  0  0  0  0  0  0
   -0.1420   -4.8752   33.8419 C   0  0  0  0  0  0  0  0  0  0  0  0
   -0.9588   -5.9184   34.5126 C   0  0  0  0  0  0  0  0  0  0  0  0
   -1.2604   -7.0818   33.9041 C   0  0  0  0  0  0  0  0  0  0  0  0
   -0.7830   -7.2738   32.5878 C   0  0  0  0  0  0  0  0  0  0  0  0
   -1.1519   -8.0509   31.5936 N   0  0  0  0  0  0  0  0  0  0  0  0
   -0.3705   -7.7263   30.5077 N   0  0  0  0  0  0  0  0  0  0  0  0
    0.4724   -6.7862   30.8846 C   0  0  0  0  0  0  0  0  0  0  0  0
    0.2806   -6.4687   32.1999 N   0  0  0  0  0  0  0  0  0  0  0  0
    0.7452   -5.3593   32.9430 C   0  0  0  0  0  0  0  0  0  0  0  0
    2.1415   -5.2608   33.3886 N   0  0  0  0  0  0  0  0  0  0  0  0
    2.7791   -3.9208   33.5805 C   0  0  0  0  0  0  0  0  0  0  0  0
    2.4942   -3.2873   34.9475 C   0  0  0  0  0  0  0  0  0  0  0  0
    2.9180   -4.1488   36.1396 C   0  0  0  0  0  0  0  0  0  0  0  0
    2.2416   -5.5259   36.1220 C   0  0  0  0  0  0  0  0  0  0  0  0
    2.6056   -6.4409   37.2779 C   0  0  0  0  0  0  0  0  0  0  0  0
    3.9169   -6.5578   37.7657 C   0  0  0  0  0  0  0  0  0  0  0  0
    4.2135   -7.4282   38.8171 C   0  0  0  0  0  0  0  0  0  0  0  0
    3.2070   -8.1971   39.3937 C   0  0  0  0  0  0  0  0  0  0  0  0
    1.9029   -8.0986   38.9189 C   0  0  0  0  0  0  0  0  0  0  0  0
    1.6033   -7.2302   37.8684 C   0  0  0  0  0  0  0  0  0  0  0  0
    2.6848   -6.3789   34.5845 S   0  0  0  0  0  0  0  0  0  0  0  0
    1.9541   -7.6203   34.4281 O   0  0  0  0  0  0  0  0  0  0  0  0
    4.1331   -6.3890   34.5014 O   0  0  0  0  0  0  0  0  0  0  0  0
   -0.8464   -2.7471   30.4661 N   0  0  0  0  0  0  0  0  0  0  0  0
   -0.3658   -2.6460   29.0701 C   0  0  0  0  0  0  0  0  0  0  0  0
   -0.3806   -1.2374   28.5043 C   0  0  0  0  0  0  0  0  0  0  0  0
    0.7764   -0.4216   28.5178 C   0  0  0  0  0  0  0  0  0  0  0  0
    0.7439    0.9034   28.0562 C   0  0  0  0  0  0  0  0  0  0  0  0
   -0.4452    1.3831   27.5563 C   0  0  0  0  0  0  0  0  0  0  0  0
   -1.5590    0.5876   27.4876 C   0  0  0  0  0  0  0  0  0  0  0  0
   -1.5584   -0.7158   27.9525 C   0  0  0  0  0  0  0  0  0  0  0  0
   -2.6074    1.2299   26.9054 O   0  0  0  0  0  0  0  0  0  0  0  0
   -2.0582    2.5420   26.6935 C   0  0  0  0  0  0  0  0  0  0  0  0
   -0.6607    2.6261   27.0481 O   0  0  0  0  0  0  0  0  0  0  0  0
   -2.4267   -0.1916   30.9401 H   0  0  0  0  0  0  0  0  0  0  0  0
   -2.1434    0.8421   32.3533 H   0  0  0  0  0  0  0  0  0  0  0  0
   -2.3755   -0.8815   32.5677 H   0  0  0  0  0  0  0  0  0  0  0  0
   -0.0569    0.2638   30.9040 H   0  0  0  0  0  0  0  0  0  0  0  0
    0.0780    0.1349   32.6458 H   0  0  0  0  0  0  0  0  0  0  0  0
   -1.6343   -3.4142   34.2799 H   0  0  0  0  0  0  0  0  0  0  0  0
   -1.7202   -4.0118   32.6172 H   0  0  0  0  0  0  0  0  0  0  0  0
   -1.3162   -5.7037   35.5172 H   0  0  0  0  0  0  0  0  0  0  0  0
   -1.8655   -7.8516   34.3691 H   0  0  0  0  0  0  0  0  0  0  0  0
    1.1847   -6.2707   30.2579 H   0  0  0  0  0  0  0  0  0  0  0  0
    3.8624   -4.0336   33.4468 H   0  0  0  0  0  0  0  0  0  0  0  0
    2.4738   -3.2515   32.7855 H   0  0  0  0  0  0  0  0  0  0  0  0
    3.0279   -2.3306   35.0022 H   0  0  0  0  0  0  0  0  0  0  0  0
    1.4342   -3.0453   35.0557 H   0  0  0  0  0  0  0  0  0  0  0  0
    2.6631   -3.6253   37.0694 H   0  0  0  0  0  0  0  0  0  0  0  0
    4.0105   -4.2380   36.1235 H   0  0  0  0  0  0  0  0  0  0  0  0
    1.1592   -5.3889   36.1281 H   0  0  0  0  0  0  0  0  0  0  0  0
    4.7350   -5.9919   37.3250 H   0  0  0  0  0  0  0  0  0  0  0  0
    5.2347   -7.5128   39.1801 H   0  0  0  0  0  0  0  0  0  0  0  0
    3.4367   -8.8820   40.2059 H   0  0  0  0  0  0  0  0  0  0  0  0
    1.1205   -8.7145   39.3583 H   0  0  0  0  0  0  0  0  0  0  0  0
    0.5763   -7.1904   37.5107 H   0  0  0  0  0  0  0  0  0  0  0  0
   -1.7768   -2.3482   30.4812 H   0  0  0  0  0  0  0  0  0  0  0  0
    0.6360   -3.0820   28.9759 H   0  0  0  0  0  0  0  0  0  0  0  0
   -1.0074   -3.2825   28.4534 H   0  0  0  0  0  0  0  0  0  0  0  0
    1.7153   -0.8172   28.9037 H   0  0  0  0  0  0  0  0  0  0  0  0
    1.6316    1.5256   28.0774 H   0  0  0  0  0  0  0  0  0  0  0  0
   -2.4396   -1.3382   27.8438 H   0  0  0  0  0  0  0  0  0  0  0  0
   -2.1648    2.7993   25.6337 H   0  0  0  0  0  0  0  0  0  0  0  0
   -2.6184    3.2694   27.2908 H   0  0  0  0  0  0  0  0  0  0  0  0
  1  2  1  0
  2  3  1  0
  3  4  2  0
  3  5  2  0
  5  6  1  0
  6  7  1  0
  7  8  1  0
  8  9  2  0
  9 10  1  0
 10 11  2  0
 11 12  1  0
 12 13  2  0
 13 14  1  0
 14 15  1  0
 15 16  1  0
 16 17  1  0
 17 18  1  0
 18 19  1  0
 19 20  1  0
 20 21  1  0
 21 22  2  0
 22 23  1  0
 23 24  2  0
 24 25  1  0
 25 26  2  0
 20 27  1  0
 27 28  2  0
 27 29  2  0
  3 30  1  0
 30 31  1  0
 31 32  1  0
 32 33  2  0
 33 34  1  0
 34 35  2  0
 35 36  1  0
 36 37  2  0
 36 38  1  0
 38 39  1  0
 39 40  1  0
 15  7  2  0
 27 16  1  0
 37 32  1  0
 14 10  1  0
 26 21  1  0
 40 35  1  0
  1 41  1  0
  1 42  1  0
  1 43  1  0
  2 44  1  0
  2 45  1  0
  6 46  1  0
  6 47  1  0
  8 48  1  0
  9 49  1  0
 13 50  1  0
 17 51  1  0
 17 52  1  0
 18 53  1  0
 18 54  1  0
 19 55  1  0
 19 56  1  0
 20 57  1  0
 22 58  1  0
 23 59  1  0
 24 60  1  0
 25 61  1  0
 26 62  1  0
 30 63  1  0
 31 64  1  0
 31 65  1  0
 33 66  1  0
 34 67  1  0
 37 68  1  0
 39 69  1  0
 39 70  1  0
M  END
>  <Energy>  (306) 
38.25567767583712

>  <compound_id>  (306) 
1629

>  <target_id>  (306) 
1

>  <reference_id>  (306) 
135

>  <inspiration_ids>  (306) 
[13, 135]

>  <energy_score>  (306) 
-10.751826745907636

>  <distance_score>  (306) 
1.4537668630897047

>  <path>  (306) 
/opt/xchem-fragalysis-2/maxwin/BulkDock/SCRATCH/505732/C1629-P135/C1629-P135.minimised.mol

>  <scratch_subdir>  (306) 
/opt/xchem-fragalysis-2/maxwin/BulkDock/SCRATCH/505732/C1629-P135

>  <fragmenstein_runtime>  (306) 
7.60710597038269

>  <fragmenstein_outcome>  (306) 
too moved

>  <fragmenstein_mode>  (306) 
expansion

>  <fragmenstein_error>  (306) 


$$$$
C1630-P13
     RDKit          3D

 65 69  0  0  0  0  0  0  0  0999 V2000
   -1.9088   -0.3359   32.5590 C   0  0  0  0  0  0  0  0  0  0  0  0
   -1.1262   -1.6085   32.7991 C   0  0  0  0  0  0  0  0  0  0  0  0
   -1.5831   -2.9140   31.6584 S   0  0  0  0  0  0  0  0  0  0  0  0
   -0.8110   -4.1152   31.8944 O   0  0  0  0  0  0  0  0  0  0  0  0
   -3.0264   -3.0310   31.6764 O   0  0  0  0  0  0  0  0  0  0  0  0
   -1.2296   -2.3494   30.1708 N   0  0  0  0  0  0  0  0  0  0  0  0
    0.0148   -1.9410   29.5595 C   0  0  0  0  0  0  0  0  0  0  0  0
    1.2159   -1.8301   30.3856 N   0  0  0  0  0  0  0  0  0  0  0  0
    1.7072   -3.0429   31.0420 C   0  0  0  0  0  0  0  0  0  0  0  0
    3.2168   -3.0208   31.4297 C   0  0  0  0  0  0  0  0  0  0  0  0
    3.5543   -4.0857   32.3830 N   0  0  0  0  0  0  0  0  0  0  0  0
    3.6402   -1.7152   31.9986 C   0  0  0  0  0  0  0  0  0  0  0  0
    4.5189   -1.0178   31.2033 O   0  0  0  0  0  0  0  0  0  0  0  0
    4.7372    0.1398   31.8693 C   0  0  0  0  0  0  0  0  0  0  0  0
    4.0917    0.2457   32.9999 N   0  0  0  0  0  0  0  0  0  0  0  0
    3.3790   -0.9502   33.1259 C   0  0  0  0  0  0  0  0  0  0  0  0
    2.5212   -1.1707   34.3234 C   0  0  0  0  0  0  0  0  0  0  0  0
    2.2710   -0.1840   34.9551 O   0  0  0  0  0  0  0  0  0  0  0  0
    2.1789   -2.5556   34.5639 N   0  0  0  0  0  0  0  0  0  0  0  0
    1.5476   -3.1566   35.6284 C   0  0  0  0  0  0  0  0  0  0  0  0
    1.3044   -2.4751   36.7636 C   0  0  0  0  0  0  0  0  0  0  0  0
    0.8444   -3.0748   37.9069 N   0  0  0  0  0  0  0  0  0  0  0  0
    0.6378   -4.4249   38.0420 C   0  0  0  0  0  0  0  0  0  0  0  0
    0.3290   -4.9341   39.1123 O   0  0  0  0  0  0  0  0  0  0  0  0
    0.7871   -5.2279   36.8044 C   0  0  0  0  0  0  0  0  0  0  0  0
    0.4684   -6.5928   36.8451 C   0  0  0  0  0  0  0  0  0  0  0  0
    0.4783   -7.3395   35.6724 C   0  0  0  0  0  0  0  0  0  0  0  0
    0.7706   -6.7123   34.4658 C   0  0  0  0  0  0  0  0  0  0  0  0
    1.1250   -5.3580   34.4365 C   0  0  0  0  0  0  0  0  0  0  0  0
    1.1768   -4.5940   35.6084 C   0  0  0  0  0  0  0  0  0  0  0  0
   -0.2569   -0.5807   28.8691 C   0  0  0  0  0  0  0  0  0  0  0  0
    0.3641    0.6282   29.2896 C   0  0  0  0  0  0  0  0  0  0  0  0
    0.0548    1.8600   28.6996 C   0  0  0  0  0  0  0  0  0  0  0  0
   -0.9134    1.8781   27.7239 C   0  0  0  0  0  0  0  0  0  0  0  0
   -1.5386    0.7295   27.3111 C   0  0  0  0  0  0  0  0  0  0  0  0
   -1.2197   -0.5069   27.8388 C   0  0  0  0  0  0  0  0  0  0  0  0
   -2.4846    0.9740   26.3653 O   0  0  0  0  0  0  0  0  0  0  0  0
   -2.4683    2.4162   26.3260 C   0  0  0  0  0  0  0  0  0  0  0  0
   -1.3780    2.9835   27.0842 O   0  0  0  0  0  0  0  0  0  0  0  0
   -1.7368    0.0536   31.5526 H   0  0  0  0  0  0  0  0  0  0  0  0
   -1.6089    0.4319   33.2786 H   0  0  0  0  0  0  0  0  0  0  0  0
   -2.9841   -0.5049   32.6733 H   0  0  0  0  0  0  0  0  0  0  0  0
   -0.0552   -1.4258   32.7260 H   0  0  0  0  0  0  0  0  0  0  0  0
   -1.3331   -1.9944   33.8027 H   0  0  0  0  0  0  0  0  0  0  0  0
   -2.0416   -2.3101   29.5516 H   0  0  0  0  0  0  0  0  0  0  0  0
    0.2353   -2.6523   28.7522 H   0  0  0  0  0  0  0  0  0  0  0  0
    1.9512   -1.4800   29.7683 H   0  0  0  0  0  0  0  0  0  0  0  0
    1.5168   -3.9329   30.4305 H   0  0  0  0  0  0  0  0  0  0  0  0
    1.1778   -3.1414   31.9844 H   0  0  0  0  0  0  0  0  0  0  0  0
    3.7891   -3.2049   30.5107 H   0  0  0  0  0  0  0  0  0  0  0  0
    3.3338   -4.9878   31.9559 H   0  0  0  0  0  0  0  0  0  0  0  0
    4.5725   -4.1000   32.5010 H   0  0  0  0  0  0  0  0  0  0  0  0
    5.4087    0.8525   31.4114 H   0  0  0  0  0  0  0  0  0  0  0  0
    2.6311   -3.1376   33.8587 H   0  0  0  0  0  0  0  0  0  0  0  0
    1.5254   -1.4181   36.8769 H   0  0  0  0  0  0  0  0  0  0  0  0
    0.7307   -2.5268   38.7526 H   0  0  0  0  0  0  0  0  0  0  0  0
    0.1971   -7.0602   37.7896 H   0  0  0  0  0  0  0  0  0  0  0  0
    0.2423   -8.3986   35.7005 H   0  0  0  0  0  0  0  0  0  0  0  0
    0.7114   -7.2676   33.5350 H   0  0  0  0  0  0  0  0  0  0  0  0
    1.3140   -4.9078   33.4702 H   0  0  0  0  0  0  0  0  0  0  0  0
    1.0808    0.6315   30.1090 H   0  0  0  0  0  0  0  0  0  0  0  0
    0.5242    2.7799   29.0311 H   0  0  0  0  0  0  0  0  0  0  0  0
   -1.7351   -1.3886   27.4657 H   0  0  0  0  0  0  0  0  0  0  0  0
   -3.4173    2.7952   26.7222 H   0  0  0  0  0  0  0  0  0  0  0  0
   -2.3689    2.7344   25.2825 H   0  0  0  0  0  0  0  0  0  0  0  0
  1  2  1  0
  2  3  1  0
  3  4  2  0
  3  5  2  0
  3  6  1  0
  6  7  1  0
  7  8  1  0
  8  9  1  0
  9 10  1  0
 10 11  1  0
 10 12  1  0
 12 13  1  0
 13 14  1  0
 14 15  2  0
 15 16  1  0
 16 17  1  0
 17 18  2  0
 17 19  1  0
 19 20  1  0
 20 21  2  0
 21 22  1  0
 22 23  1  0
 23 24  2  0
 23 25  1  0
 25 26  2  0
 26 27  1  0
 27 28  2  0
 28 29  1  0
 29 30  2  0
  7 31  1  0
 31 32  2  0
 32 33  1  0
 33 34  2  0
 34 35  1  0
 35 36  2  0
 35 37  1  0
 37 38  1  0
 38 39  1  0
 16 12  2  0
 30 20  1  0
 36 31  1  0
 30 25  1  0
 39 34  1  0
  1 40  1  0
  1 41  1  0
  1 42  1  0
  2 43  1  0
  2 44  1  0
  6 45  1  0
  7 46  1  0
  8 47  1  0
  9 48  1  0
  9 49  1  0
 10 50  1  0
 11 51  1  0
 11 52  1  0
 14 53  1  0
 19 54  1  0
 21 55  1  0
 22 56  1  0
 26 57  1  0
 27 58  1  0
 28 59  1  0
 29 60  1  0
 32 61  1  0
 33 62  1  0
 36 63  1  0
 38 64  1  0
 38 65  1  0
M  END
>  <Energy>  (307) 
-24.405109033211858

>  <compound_id>  (307) 
1630

>  <target_id>  (307) 
1

>  <reference_id>  (307) 
13

>  <inspiration_ids>  (307) 
[13, 136]

>  <energy_score>  (307) 
-91.23771324965051

>  <distance_score>  (307) 
1.778124453638761

>  <path>  (307) 
/opt/xchem-fragalysis-2/maxwin/BulkDock/SCRATCH/505732/C1630-P13/C1630-P13.minimised.mol

>  <scratch_subdir>  (307) 
/opt/xchem-fragalysis-2/maxwin/BulkDock/SCRATCH/505732/C1630-P13

>  <fragmenstein_runtime>  (307) 
12.789022207260132

>  <fragmenstein_outcome>  (307) 
too moved

>  <fragmenstein_mode>  (307) 
expansion

>  <fragmenstein_error>  (307) 


$$$$
C1630-P136
     RDKit          3D

 65 69  0  0  0  0  0  0  0  0999 V2000
   -2.1568   -0.3495   31.7484 C   0  0  0  0  0  0  0  0  0  0  0  0
   -1.0195   -1.2343   32.1734 C   0  0  0  0  0  0  0  0  0  0  0  0
   -1.1784   -2.9096   31.5946 S   0  0  0  0  0  0  0  0  0  0  0  0
   -0.2633   -3.7301   32.3550 O   0  0  0  0  0  0  0  0  0  0  0  0
   -2.5816   -3.2734   31.6056 O   0  0  0  0  0  0  0  0  0  0  0  0
   -0.7426   -2.9120   30.0012 N   0  0  0  0  0  0  0  0  0  0  0  0
    0.4192   -2.2481   29.4276 C   0  0  0  0  0  0  0  0  0  0  0  0
    1.5703   -2.1522   30.3182 N   0  0  0  0  0  0  0  0  0  0  0  0
    2.1895   -3.4020   30.8003 C   0  0  0  0  0  0  0  0  0  0  0  0
    3.2425   -3.1254   31.9281 C   0  0  0  0  0  0  0  0  0  0  0  0
    3.8538   -4.3616   32.4162 N   0  0  0  0  0  0  0  0  0  0  0  0
    2.7200   -2.2402   33.0078 C   0  0  0  0  0  0  0  0  0  0  0  0
    2.8985   -0.8904   32.8071 O   0  0  0  0  0  0  0  0  0  0  0  0
    2.2837   -0.3050   33.8625 C   0  0  0  0  0  0  0  0  0  0  0  0
    1.7350   -1.1366   34.7144 N   0  0  0  0  0  0  0  0  0  0  0  0
    2.0450   -2.3940   34.2020 C   0  0  0  0  0  0  0  0  0  0  0  0
    1.7226   -3.6489   34.8896 C   0  0  0  0  0  0  0  0  0  0  0  0
    2.1532   -4.6708   34.5190 O   0  0  0  0  0  0  0  0  0  0  0  0
    0.8702   -3.3122   36.1395 N   0  0  0  0  0  0  0  0  0  0  0  0
    0.4715   -4.1060   37.1890 C   0  0  0  0  0  0  0  0  0  0  0  0
    0.1229   -3.4954   38.3365 C   0  0  0  0  0  0  0  0  0  0  0  0
   -0.0168   -4.1720   39.5197 N   0  0  0  0  0  0  0  0  0  0  0  0
    0.2785   -5.5051   39.6821 C   0  0  0  0  0  0  0  0  0  0  0  0
    0.2810   -6.0408   40.7840 O   0  0  0  0  0  0  0  0  0  0  0  0
    0.5577   -6.2630   38.4375 C   0  0  0  0  0  0  0  0  0  0  0  0
    0.7425   -7.6517   38.5168 C   0  0  0  0  0  0  0  0  0  0  0  0
    0.8288   -8.4039   37.3502 C   0  0  0  0  0  0  0  0  0  0  0  0
    0.6758   -7.7720   36.1208 C   0  0  0  0  0  0  0  0  0  0  0  0
    0.4992   -6.3853   36.0514 C   0  0  0  0  0  0  0  0  0  0  0  0
    0.5279   -5.5891   37.2018 C   0  0  0  0  0  0  0  0  0  0  0  0
    0.0318   -0.8511   28.8648 C   0  0  0  0  0  0  0  0  0  0  0  0
    0.7779    0.3239   29.1627 C   0  0  0  0  0  0  0  0  0  0  0  0
    0.4502    1.5784   28.6277 C   0  0  0  0  0  0  0  0  0  0  0  0
   -0.6394    1.6603   27.7986 C   0  0  0  0  0  0  0  0  0  0  0  0
   -1.3823    0.5516   27.4939 C   0  0  0  0  0  0  0  0  0  0  0  0
   -1.0785   -0.7033   28.0036 C   0  0  0  0  0  0  0  0  0  0  0  0
   -2.4011    0.8505   26.6434 O   0  0  0  0  0  0  0  0  0  0  0  0
   -2.2741    2.2810   26.5314 C   0  0  0  0  0  0  0  0  0  0  0  0
   -1.1011    2.7886   27.1986 O   0  0  0  0  0  0  0  0  0  0  0  0
   -1.9889    0.6366   32.1764 H   0  0  0  0  0  0  0  0  0  0  0  0
   -3.1142   -0.7190   32.1276 H   0  0  0  0  0  0  0  0  0  0  0  0
   -2.2322   -0.2607   30.6638 H   0  0  0  0  0  0  0  0  0  0  0  0
   -0.0532   -0.8287   31.8783 H   0  0  0  0  0  0  0  0  0  0  0  0
   -1.0136   -1.3014   33.2676 H   0  0  0  0  0  0  0  0  0  0  0  0
   -1.5317   -3.0017   29.3584 H   0  0  0  0  0  0  0  0  0  0  0  0
    0.7286   -2.8371   28.5543 H   0  0  0  0  0  0  0  0  0  0  0  0
    2.3056   -1.6605   29.8103 H   0  0  0  0  0  0  0  0  0  0  0  0
    2.7133   -3.8658   29.9529 H   0  0  0  0  0  0  0  0  0  0  0  0
    1.4739   -4.1544   31.1229 H   0  0  0  0  0  0  0  0  0  0  0  0
    4.0613   -2.5746   31.4432 H   0  0  0  0  0  0  0  0  0  0  0  0
    4.5789   -4.1305   33.0945 H   0  0  0  0  0  0  0  0  0  0  0  0
    3.1513   -4.8711   32.9707 H   0  0  0  0  0  0  0  0  0  0  0  0
    2.3012    0.7755   33.8961 H   0  0  0  0  0  0  0  0  0  0  0  0
    0.7386   -2.3044   36.1998 H   0  0  0  0  0  0  0  0  0  0  0  0
    0.0301   -2.4166   38.4182 H   0  0  0  0  0  0  0  0  0  0  0  0
   -0.2290   -3.6685   40.3734 H   0  0  0  0  0  0  0  0  0  0  0  0
    0.7941   -8.1423   39.4865 H   0  0  0  0  0  0  0  0  0  0  0  0
    0.9867   -9.4780   37.4010 H   0  0  0  0  0  0  0  0  0  0  0  0
    0.7125   -8.3488   35.2022 H   0  0  0  0  0  0  0  0  0  0  0  0
    0.3399   -5.9432   35.0719 H   0  0  0  0  0  0  0  0  0  0  0  0
    1.6306    0.2932   29.8373 H   0  0  0  0  0  0  0  0  0  0  0  0
    1.0310    2.4625   28.8673 H   0  0  0  0  0  0  0  0  0  0  0  0
   -1.6940   -1.5464   27.7048 H   0  0  0  0  0  0  0  0  0  0  0  0
   -3.1646    2.7553   26.9567 H   0  0  0  0  0  0  0  0  0  0  0  0
   -2.2116    2.5427   25.4691 H   0  0  0  0  0  0  0  0  0  0  0  0
  1  2  1  0
  2  3  1  0
  3  4  2  0
  3  5  2  0
  3  6  1  0
  6  7  1  0
  7  8  1  0
  8  9  1  0
  9 10  1  0
 10 11  1  0
 10 12  1  0
 12 13  1  0
 13 14  1  0
 14 15  2  0
 15 16  1  0
 16 17  1  0
 17 18  2  0
 17 19  1  0
 19 20  1  0
 20 21  2  0
 21 22  1  0
 22 23  1  0
 23 24  2  0
 23 25  1  0
 25 26  2  0
 26 27  1  0
 27 28  2  0
 28 29  1  0
 29 30  2  0
  7 31  1  0
 31 32  2  0
 32 33  1  0
 33 34  2  0
 34 35  1  0
 35 36  2  0
 35 37  1  0
 37 38  1  0
 38 39  1  0
 16 12  2  0
 30 20  1  0
 36 31  1  0
 30 25  1  0
 39 34  1  0
  1 40  1  0
  1 41  1  0
  1 42  1  0
  2 43  1  0
  2 44  1  0
  6 45  1  0
  7 46  1  0
  8 47  1  0
  9 48  1  0
  9 49  1  0
 10 50  1  0
 11 51  1  0
 11 52  1  0
 14 53  1  0
 19 54  1  0
 21 55  1  0
 22 56  1  0
 26 57  1  0
 27 58  1  0
 28 59  1  0
 29 60  1  0
 32 61  1  0
 33 62  1  0
 36 63  1  0
 38 64  1  0
 38 65  1  0
M  END
>  <Energy>  (308) 
-19.275473660308151

>  <compound_id>  (308) 
1630

>  <target_id>  (308) 
1

>  <reference_id>  (308) 
136

>  <inspiration_ids>  (308) 
[13, 136]

>  <energy_score>  (308) 
-91.98480503972982

>  <distance_score>  (308) 
2.2835899894631524

>  <path>  (308) 
/opt/xchem-fragalysis-2/maxwin/BulkDock/SCRATCH/505732/C1630-P136/C1630-P136.minimised.mol

>  <scratch_subdir>  (308) 
/opt/xchem-fragalysis-2/maxwin/BulkDock/SCRATCH/505732/C1630-P136

>  <fragmenstein_runtime>  (308) 
10.288599014282227

>  <fragmenstein_outcome>  (308) 
too moved

>  <fragmenstein_mode>  (308) 
expansion

>  <fragmenstein_error>  (308) 


$$$$
C1631-P13
     RDKit          3D

 68 72  0  0  0  0  0  0  0  0999 V2000
   -2.4661   -0.4206   31.7839 C   0  0  0  0  0  0  0  0  0  0  0  0
   -1.1515   -1.1343   31.8385 C   0  0  0  0  0  0  0  0  0  0  0  0
   -1.3000   -2.8544   31.4529 S   0  0  0  0  0  0  0  0  0  0  0  0
   -0.0128   -3.4330   31.7318 O   0  0  0  0  0  0  0  0  0  0  0  0
   -2.4884   -3.3933   32.0722 O   0  0  0  0  0  0  0  0  0  0  0  0
   -1.6219   -2.9519   29.8503 N   0  0  0  0  0  0  0  0  0  0  0  0
   -0.5976   -2.8543   28.8343 C   0  0  0  0  0  0  0  0  0  0  0  0
   -0.3303   -1.4544   28.4005 C   0  0  0  0  0  0  0  0  0  0  0  0
   -1.4794   -0.7167   28.0140 C   0  0  0  0  0  0  0  0  0  0  0  0
   -1.3446    0.5712   27.5819 C   0  0  0  0  0  0  0  0  0  0  0  0
   -0.1132    1.1508   27.5037 C   0  0  0  0  0  0  0  0  0  0  0  0
    1.0457    0.4418   27.8127 C   0  0  0  0  0  0  0  0  0  0  0  0
    0.9670   -0.9038   28.2642 C   0  0  0  0  0  0  0  0  0  0  0  0
    2.1660   -1.6540   28.3797 N   0  0  0  0  0  0  0  0  0  0  0  0
    2.4309   -2.5707   29.5210 C   0  0  0  0  0  0  0  0  0  0  0  0
    2.4628   -4.0859   29.1352 C   0  0  0  0  0  0  0  0  0  0  0  0
    2.2921   -4.9349   30.3634 C   0  0  0  0  0  0  0  0  0  0  0  0
    3.1270   -4.9729   31.3614 N   0  0  0  0  0  0  0  0  0  0  0  0
    2.3968   -5.4700   32.4448 C   0  0  0  0  0  0  0  0  0  0  0  0
    3.0059   -5.2530   33.7727 C   0  0  0  0  0  0  0  0  0  0  0  0
    3.9235   -4.5265   33.7406 O   0  0  0  0  0  0  0  0  0  0  0  0
    2.3726   -6.0249   34.9676 N   0  0  0  0  0  0  0  0  0  0  0  0
    2.6663   -5.9867   36.3111 C   0  0  0  0  0  0  0  0  0  0  0  0
    3.5398   -5.0309   36.6786 C   0  0  0  0  0  0  0  0  0  0  0  0
    4.0847   -4.9311   37.9188 N   0  0  0  0  0  0  0  0  0  0  0  0
    3.8655   -5.8235   38.9239 C   0  0  0  0  0  0  0  0  0  0  0  0
    4.4498   -5.7387   39.9976 O   0  0  0  0  0  0  0  0  0  0  0  0
    2.8621   -6.8722   38.6426 C   0  0  0  0  0  0  0  0  0  0  0  0
    2.5679   -7.7610   39.6848 C   0  0  0  0  0  0  0  0  0  0  0  0
    1.5966   -8.7267   39.4976 C   0  0  0  0  0  0  0  0  0  0  0  0
    0.9293   -8.7904   38.2759 C   0  0  0  0  0  0  0  0  0  0  0  0
    1.2368   -7.9055   37.2242 C   0  0  0  0  0  0  0  0  0  0  0  0
    2.2236   -6.9306   37.3754 C   0  0  0  0  0  0  0  0  0  0  0  0
    1.1778   -5.9419   31.9787 C   0  0  0  0  0  0  0  0  0  0  0  0
   -0.0755   -6.4421   32.6112 C   0  0  0  0  0  0  0  0  0  0  0  0
    0.2184   -7.5168   33.5515 N   0  0  0  0  0  0  0  0  0  0  0  0
    1.1290   -5.6362   30.6093 O   0  0  0  0  0  0  0  0  0  0  0  0
   -0.1950    2.4286   27.0357 O   0  0  0  0  0  0  0  0  0  0  0  0
   -1.6296    2.5819   26.8762 C   0  0  0  0  0  0  0  0  0  0  0  0
   -2.3545    1.3751   27.1689 O   0  0  0  0  0  0  0  0  0  0  0  0
   -2.7741   -0.2450   30.7510 H   0  0  0  0  0  0  0  0  0  0  0  0
   -2.3492    0.5267   32.3045 H   0  0  0  0  0  0  0  0  0  0  0  0
   -3.2666   -0.9677   32.2906 H   0  0  0  0  0  0  0  0  0  0  0  0
   -0.7612   -1.0966   32.8622 H   0  0  0  0  0  0  0  0  0  0  0  0
   -0.4001   -0.6808   31.1887 H   0  0  0  0  0  0  0  0  0  0  0  0
   -2.5719   -2.8151   29.5177 H   0  0  0  0  0  0  0  0  0  0  0  0
   -0.8863   -3.4473   27.9675 H   0  0  0  0  0  0  0  0  0  0  0  0
    0.2512   -3.3625   29.2346 H   0  0  0  0  0  0  0  0  0  0  0  0
   -2.4641   -1.1712   28.0047 H   0  0  0  0  0  0  0  0  0  0  0  0
    2.0069    0.9233   27.6633 H   0  0  0  0  0  0  0  0  0  0  0  0
    2.9666   -1.0334   28.2525 H   0  0  0  0  0  0  0  0  0  0  0  0
    1.7503   -2.3508   30.3483 H   0  0  0  0  0  0  0  0  0  0  0  0
    3.4246   -2.3155   29.9144 H   0  0  0  0  0  0  0  0  0  0  0  0
    3.4407   -4.3082   28.6898 H   0  0  0  0  0  0  0  0  0  0  0  0
    1.7310   -4.3489   28.3679 H   0  0  0  0  0  0  0  0  0  0  0  0
    1.6298   -6.6365   34.6237 H   0  0  0  0  0  0  0  0  0  0  0  0
    3.9183   -4.2733   36.0017 H   0  0  0  0  0  0  0  0  0  0  0  0
    4.7715   -4.2117   38.1140 H   0  0  0  0  0  0  0  0  0  0  0  0
    3.0849   -7.6898   40.6393 H   0  0  0  0  0  0  0  0  0  0  0  0
    1.3520   -9.4254   40.2935 H   0  0  0  0  0  0  0  0  0  0  0  0
    0.1686   -9.5555   38.1230 H   0  0  0  0  0  0  0  0  0  0  0  0
    0.6982   -8.0110   36.2874 H   0  0  0  0  0  0  0  0  0  0  0  0
   -0.5581   -5.6248   33.1561 H   0  0  0  0  0  0  0  0  0  0  0  0
   -0.7798   -6.7937   31.8495 H   0  0  0  0  0  0  0  0  0  0  0  0
   -0.6547   -7.7617   34.0327 H   0  0  0  0  0  0  0  0  0  0  0  0
    0.3864   -8.3318   32.9638 H   0  0  0  0  0  0  0  0  0  0  0  0
   -1.9743    3.3781   27.5465 H   0  0  0  0  0  0  0  0  0  0  0  0
   -1.8340    2.8748   25.8402 H   0  0  0  0  0  0  0  0  0  0  0  0
  1  2  1  0
  2  3  1  0
  3  4  2  0
  3  5  2  0
  3  6  1  0
  6  7  1  0
  7  8  1  0
  8  9  2  0
  9 10  1  0
 10 11  2  0
 11 12  1  0
 12 13  2  0
 13 14  1  0
 14 15  1  0
 15 16  1  0
 16 17  1  0
 17 18  2  0
 18 19  1  0
 19 20  1  0
 20 21  2  0
 20 22  1  0
 22 23  1  0
 23 24  2  0
 24 25  1  0
 25 26  1  0
 26 27  2  0
 26 28  1  0
 28 29  2  0
 29 30  1  0
 30 31  2  0
 31 32  1  0
 32 33  2  0
 19 34  2  0
 34 35  1  0
 35 36  1  0
 34 37  1  0
 11 38  1  0
 38 39  1  0
 39 40  1  0
 13  8  1  0
 37 17  1  0
 40 10  1  0
 33 23  1  0
 33 28  1  0
  1 41  1  0
  1 42  1  0
  1 43  1  0
  2 44  1  0
  2 45  1  0
  6 46  1  0
  7 47  1  0
  7 48  1  0
  9 49  1  0
 12 50  1  0
 14 51  1  0
 15 52  1  0
 15 53  1  0
 16 54  1  0
 16 55  1  0
 22 56  1  0
 24 57  1  0
 25 58  1  0
 29 59  1  0
 30 60  1  0
 31 61  1  0
 32 62  1  0
 35 63  1  0
 35 64  1  0
 36 65  1  0
 36 66  1  0
 39 67  1  0
 39 68  1  0
M  END
>  <Energy>  (309) 
40.125302247073321

>  <compound_id>  (309) 
1631

>  <target_id>  (309) 
1

>  <reference_id>  (309) 
13

>  <inspiration_ids>  (309) 
[13, 140]

>  <energy_score>  (309) 
-77.70797668977895

>  <distance_score>  (309) 
1.7778948746641132

>  <path>  (309) 
/opt/xchem-fragalysis-2/maxwin/BulkDock/SCRATCH/505732/C1631-P13/C1631-P13.minimised.mol

>  <scratch_subdir>  (309) 
/opt/xchem-fragalysis-2/maxwin/BulkDock/SCRATCH/505732/C1631-P13

>  <fragmenstein_runtime>  (309) 
9.999107122421265

>  <fragmenstein_outcome>  (309) 
too moved

>  <fragmenstein_mode>  (309) 
expansion

>  <fragmenstein_error>  (309) 


$$$$
C1631-P140
     RDKit          3D

 68 72  0  0  0  0  0  0  0  0999 V2000
   -2.2008   -0.0967   31.6256 C   0  0  0  0  0  0  0  0  0  0  0  0
   -1.0019   -0.9615   31.9159 C   0  0  0  0  0  0  0  0  0  0  0  0
   -1.3314   -2.7125   31.7403 S   0  0  0  0  0  0  0  0  0  0  0  0
   -0.5988   -3.3892   32.7899 O   0  0  0  0  0  0  0  0  0  0  0  0
   -2.7394   -2.9760   31.5632 O   0  0  0  0  0  0  0  0  0  0  0  0
   -0.5725   -3.2254   30.3680 N   0  0  0  0  0  0  0  0  0  0  0  0
   -0.8852   -2.7848   29.0230 C   0  0  0  0  0  0  0  0  0  0  0  0
   -0.4383   -1.4092   28.6410 C   0  0  0  0  0  0  0  0  0  0  0  0
   -1.4770   -0.6345   28.0648 C   0  0  0  0  0  0  0  0  0  0  0  0
   -1.2410    0.6453   27.6517 C   0  0  0  0  0  0  0  0  0  0  0  0
    0.0025    1.1858   27.7607 C   0  0  0  0  0  0  0  0  0  0  0  0
    1.0741    0.4397   28.2434 C   0  0  0  0  0  0  0  0  0  0  0  0
    0.8855   -0.9014   28.6912 C   0  0  0  0  0  0  0  0  0  0  0  0
    2.0382   -1.6573   29.0182 N   0  0  0  0  0  0  0  0  0  0  0  0
    2.1781   -2.4699   30.2559 C   0  0  0  0  0  0  0  0  0  0  0  0
    2.2638   -3.9901   29.9850 C   0  0  0  0  0  0  0  0  0  0  0  0
    1.7864   -4.8572   31.1275 C   0  0  0  0  0  0  0  0  0  0  0  0
    2.2479   -4.9841   32.3589 N   0  0  0  0  0  0  0  0  0  0  0  0
    1.3614   -5.8854   32.9702 C   0  0  0  0  0  0  0  0  0  0  0  0
    1.4879   -6.3484   34.3614 C   0  0  0  0  0  0  0  0  0  0  0  0
    0.9473   -7.3057   34.7426 O   0  0  0  0  0  0  0  0  0  0  0  0
    2.4827   -5.4236   35.0655 N   0  0  0  0  0  0  0  0  0  0  0  0
    3.0725   -5.5230   36.2976 C   0  0  0  0  0  0  0  0  0  0  0  0
    4.2251   -4.8424   36.3950 C   0  0  0  0  0  0  0  0  0  0  0  0
    5.0942   -5.0061   37.4266 N   0  0  0  0  0  0  0  0  0  0  0  0
    4.9318   -5.9198   38.4322 C   0  0  0  0  0  0  0  0  0  0  0  0
    5.8172   -6.1182   39.2559 O   0  0  0  0  0  0  0  0  0  0  0  0
    3.6224   -6.6062   38.4834 C   0  0  0  0  0  0  0  0  0  0  0  0
    3.3568   -7.3947   39.6143 C   0  0  0  0  0  0  0  0  0  0  0  0
    2.0939   -7.9300   39.7900 C   0  0  0  0  0  0  0  0  0  0  0  0
    1.1091   -7.6519   38.8482 C   0  0  0  0  0  0  0  0  0  0  0  0
    1.3884   -6.8859   37.7001 C   0  0  0  0  0  0  0  0  0  0  0  0
    2.6680   -6.3707   37.4645 C   0  0  0  0  0  0  0  0  0  0  0  0
    0.4056   -6.2923   32.0611 C   0  0  0  0  0  0  0  0  0  0  0  0
   -0.7908   -7.1745   32.1375 C   0  0  0  0  0  0  0  0  0  0  0  0
   -1.5225   -7.0006   33.3811 N   0  0  0  0  0  0  0  0  0  0  0  0
    0.6904   -5.6638   30.8675 O   0  0  0  0  0  0  0  0  0  0  0  0
    0.0291    2.4664   27.2954 O   0  0  0  0  0  0  0  0  0  0  0  0
   -1.3638    2.6685   26.9413 C   0  0  0  0  0  0  0  0  0  0  0  0
   -2.1518    1.4782   27.0914 O   0  0  0  0  0  0  0  0  0  0  0  0
   -2.5481   -0.2187   30.6001 H   0  0  0  0  0  0  0  0  0  0  0  0
   -1.9334    0.9509   31.7759 H   0  0  0  0  0  0  0  0  0  0  0  0
   -3.0340   -0.3334   32.2948 H   0  0  0  0  0  0  0  0  0  0  0  0
   -0.7016   -0.8159   32.9599 H   0  0  0  0  0  0  0  0  0  0  0  0
   -0.1437   -0.6835   31.3075 H   0  0  0  0  0  0  0  0  0  0  0  0
   -0.5042   -4.2438   30.4100 H   0  0  0  0  0  0  0  0  0  0  0  0
   -1.9661   -2.8863   28.9187 H   0  0  0  0  0  0  0  0  0  0  0  0
   -0.4480   -3.4959   28.3158 H   0  0  0  0  0  0  0  0  0  0  0  0
   -2.4622   -1.0581   27.9025 H   0  0  0  0  0  0  0  0  0  0  0  0
    2.0604    0.8932   28.2446 H   0  0  0  0  0  0  0  0  0  0  0  0
    2.8688   -1.0777   28.8943 H   0  0  0  0  0  0  0  0  0  0  0  0
    3.1332   -2.1783   30.7147 H   0  0  0  0  0  0  0  0  0  0  0  0
    1.4454   -2.1900   31.0101 H   0  0  0  0  0  0  0  0  0  0  0  0
    3.3061   -4.2551   29.7682 H   0  0  0  0  0  0  0  0  0  0  0  0
    1.6993   -4.2484   29.0818 H   0  0  0  0  0  0  0  0  0  0  0  0
    2.8211   -4.7240   34.4062 H   0  0  0  0  0  0  0  0  0  0  0  0
    4.5905   -4.1868   35.6095 H   0  0  0  0  0  0  0  0  0  0  0  0
    5.9882   -4.5285   37.4259 H   0  0  0  0  0  0  0  0  0  0  0  0
    4.1239   -7.5637   40.3665 H   0  0  0  0  0  0  0  0  0  0  0  0
    1.8628   -8.5487   40.6535 H   0  0  0  0  0  0  0  0  0  0  0  0
    0.1113   -8.0588   38.9938 H   0  0  0  0  0  0  0  0  0  0  0  0
    0.5715   -6.6909   37.0125 H   0  0  0  0  0  0  0  0  0  0  0  0
   -1.4621   -6.9402   31.3054 H   0  0  0  0  0  0  0  0  0  0  0  0
   -0.5042   -8.2201   32.0183 H   0  0  0  0  0  0  0  0  0  0  0  0
   -0.9702   -7.4003   34.1489 H   0  0  0  0  0  0  0  0  0  0  0  0
   -1.6223   -6.0028   33.5882 H   0  0  0  0  0  0  0  0  0  0  0  0
   -1.7777    3.4570   27.5810 H   0  0  0  0  0  0  0  0  0  0  0  0
   -1.4118    2.9964   25.8969 H   0  0  0  0  0  0  0  0  0  0  0  0
  1  2  1  0
  2  3  1  0
  3  4  2  0
  3  5  2  0
  3  6  1  0
  6  7  1  0
  7  8  1  0
  8  9  2  0
  9 10  1  0
 10 11  2  0
 11 12  1  0
 12 13  2  0
 13 14  1  0
 14 15  1  0
 15 16  1  0
 16 17  1  0
 17 18  2  0
 18 19  1  0
 19 20  1  0
 20 21  2  0
 20 22  1  0
 22 23  1  0
 23 24  2  0
 24 25  1  0
 25 26  1  0
 26 27  2  0
 26 28  1  0
 28 29  2  0
 29 30  1  0
 30 31  2  0
 31 32  1  0
 32 33  2  0
 19 34  2  0
 34 35  1  0
 35 36  1  0
 34 37  1  0
 11 38  1  0
 38 39  1  0
 39 40  1  0
 13  8  1  0
 37 17  1  0
 40 10  1  0
 33 23  1  0
 33 28  1  0
  1 41  1  0
  1 42  1  0
  1 43  1  0
  2 44  1  0
  2 45  1  0
  6 46  1  0
  7 47  1  0
  7 48  1  0
  9 49  1  0
 12 50  1  0
 14 51  1  0
 15 52  1  0
 15 53  1  0
 16 54  1  0
 16 55  1  0
 22 56  1  0
 24 57  1  0
 25 58  1  0
 29 59  1  0
 30 60  1  0
 31 61  1  0
 32 62  1  0
 35 63  1  0
 35 64  1  0
 36 65  1  0
 36 66  1  0
 39 67  1  0
 39 68  1  0
M  END
>  <Energy>  (310) 
28.836019133856276

>  <compound_id>  (310) 
1631

>  <target_id>  (310) 
1

>  <reference_id>  (310) 
140

>  <inspiration_ids>  (310) 
[13, 140]

>  <energy_score>  (310) 
-88.99725980299408

>  <distance_score>  (310) 
1.7230181754913105

>  <path>  (310) 
/opt/xchem-fragalysis-2/maxwin/BulkDock/SCRATCH/505732/C1631-P140/C1631-P140.minimised.mol

>  <scratch_subdir>  (310) 
/opt/xchem-fragalysis-2/maxwin/BulkDock/SCRATCH/505732/C1631-P140

>  <fragmenstein_runtime>  (310) 
11.535058736801147

>  <fragmenstein_outcome>  (310) 
too moved

>  <fragmenstein_mode>  (310) 
expansion

>  <fragmenstein_error>  (310) 


$$$$
C1632-P13
     RDKit          3D

 55 59  0  0  0  0  0  0  0  0999 V2000
   -2.4287   -0.5285   31.7223 C   0  0  0  0  0  0  0  0  0  0  0  0
   -0.9310   -0.6574   31.6266 C   0  0  0  0  0  0  0  0  0  0  0  0
   -0.4017   -2.2716   31.1662 S   0  0  0  0  0  0  0  0  0  0  0  0
    1.0411   -2.2444   31.0736 O   0  0  0  0  0  0  0  0  0  0  0  0
   -1.1748   -3.2733   32.0247 N   0  0  0  0  0  0  0  0  0  0  0  0
   -0.3660   -3.7823   33.1333 C   0  0  0  0  0  0  0  0  0  0  0  0
    0.6674   -4.8204   32.6273 C   0  0  0  0  0  0  0  0  0  0  0  0
    0.3087   -5.6721   31.6210 C   0  0  0  0  0  0  0  0  0  0  0  0
   -0.5480   -6.7261   32.0635 C   0  0  0  0  0  0  0  0  0  0  0  0
   -1.3614   -7.5810   31.4860 N   0  0  0  0  0  0  0  0  0  0  0  0
   -2.0198   -8.2441   32.5032 N   0  0  0  0  0  0  0  0  0  0  0  0
   -1.5815   -7.7817   33.6580 C   0  0  0  0  0  0  0  0  0  0  0  0
   -2.0557   -8.0094   34.9174 N   0  0  0  0  0  0  0  0  0  0  0  0
   -0.4920   -6.9978   33.4231 N   0  0  0  0  0  0  0  0  0  0  0  0
    0.4964   -6.5023   34.2785 C   0  0  0  0  0  0  0  0  0  0  0  0
    1.2365   -5.4593   33.8459 C   0  0  0  0  0  0  0  0  0  0  0  0
    2.3172   -4.8790   34.6620 C   0  0  0  0  0  0  0  0  0  0  0  0
    3.2717   -5.6640   35.3061 C   0  0  0  0  0  0  0  0  0  0  0  0
    4.2830   -5.1479   36.0463 N   0  0  0  0  0  0  0  0  0  0  0  0
    4.3153   -3.7986   36.1102 C   0  0  0  0  0  0  0  0  0  0  0  0
    3.3765   -3.0075   35.4714 C   0  0  0  0  0  0  0  0  0  0  0  0
    2.3604   -3.5282   34.7431 N   0  0  0  0  0  0  0  0  0  0  0  0
   -0.9120   -2.7035   29.6614 N   0  0  0  0  0  0  0  0  0  0  0  0
   -0.2095   -2.3171   28.4705 C   0  0  0  0  0  0  0  0  0  0  0  0
   -0.4223   -0.8715   28.1139 C   0  0  0  0  0  0  0  0  0  0  0  0
    0.5887    0.0902   28.3366 C   0  0  0  0  0  0  0  0  0  0  0  0
    0.3927    1.4282   27.9818 C   0  0  0  0  0  0  0  0  0  0  0  0
   -0.8126    1.7684   27.4063 C   0  0  0  0  0  0  0  0  0  0  0  0
   -1.8012    0.8405   27.1927 C   0  0  0  0  0  0  0  0  0  0  0  0
   -1.6415   -0.4795   27.5422 C   0  0  0  0  0  0  0  0  0  0  0  0
   -2.8950    1.3739   26.5909 O   0  0  0  0  0  0  0  0  0  0  0  0
   -2.5110    2.7581   26.5012 C   0  0  0  0  0  0  0  0  0  0  0  0
   -1.1643    3.0061   26.9679 O   0  0  0  0  0  0  0  0  0  0  0  0
   -2.9162   -1.3979   32.1714 H   0  0  0  0  0  0  0  0  0  0  0  0
   -2.6653    0.3201   32.3625 H   0  0  0  0  0  0  0  0  0  0  0  0
   -2.8616   -0.3746   30.7314 H   0  0  0  0  0  0  0  0  0  0  0  0
   -0.5128    0.0740   30.9335 H   0  0  0  0  0  0  0  0  0  0  0  0
   -0.4814   -0.4644   32.6076 H   0  0  0  0  0  0  0  0  0  0  0  0
    0.1320   -2.9508   33.6471 H   0  0  0  0  0  0  0  0  0  0  0  0
   -1.0473   -4.2264   33.8680 H   0  0  0  0  0  0  0  0  0  0  0  0
    1.0701   -6.0232   30.9292 H   0  0  0  0  0  0  0  0  0  0  0  0
   -1.3869   -7.8879   35.6701 H   0  0  0  0  0  0  0  0  0  0  0  0
   -2.3436   -8.9977   34.9550 H   0  0  0  0  0  0  0  0  0  0  0  0
    0.6024   -6.9742   35.2459 H   0  0  0  0  0  0  0  0  0  0  0  0
    3.2639   -6.7458   35.2409 H   0  0  0  0  0  0  0  0  0  0  0  0
    5.1225   -3.3660   36.6907 H   0  0  0  0  0  0  0  0  0  0  0  0
    3.4162   -1.9253   35.5262 H   0  0  0  0  0  0  0  0  0  0  0  0
   -1.9136   -2.6202   29.5546 H   0  0  0  0  0  0  0  0  0  0  0  0
    0.8603   -2.5480   28.5346 H   0  0  0  0  0  0  0  0  0  0  0  0
   -0.5863   -2.9503   27.6720 H   0  0  0  0  0  0  0  0  0  0  0  0
    1.5346   -0.2125   28.7825 H   0  0  0  0  0  0  0  0  0  0  0  0
    1.1630    2.1734   28.1411 H   0  0  0  0  0  0  0  0  0  0  0  0
   -2.4187   -1.2061   27.3231 H   0  0  0  0  0  0  0  0  0  0  0  0
   -3.2016    3.3612   27.0970 H   0  0  0  0  0  0  0  0  0  0  0  0
   -2.5799    3.0741   25.4541 H   0  0  0  0  0  0  0  0  0  0  0  0
  1  2  1  0
  2  3  1  0
  3  4  2  0
  3  5  2  0
  5  6  1  0
  6  7  1  0
  7  8  2  0
  8  9  1  0
  9 10  2  0
 10 11  1  0
 11 12  2  0
 12 13  1  0
 12 14  1  0
 14 15  1  0
 15 16  2  0
 16 17  1  0
 17 18  2  0
 18 19  1  0
 19 20  2  0
 20 21  1  0
 21 22  2  0
  3 23  1  0
 23 24  1  0
 24 25  1  0
 25 26  2  0
 26 27  1  0
 27 28  2  0
 28 29  1  0
 29 30  2  0
 29 31  1  0
 31 32  1  0
 32 33  1  0
 16  7  1  0
 22 17  1  0
 30 25  1  0
 14  9  1  0
 33 28  1  0
  1 34  1  0
  1 35  1  0
  1 36  1  0
  2 37  1  0
  2 38  1  0
  6 39  1  0
  6 40  1  0
  8 41  1  0
 13 42  1  0
 13 43  1  0
 15 44  1  0
 18 45  1  0
 20 46  1  0
 21 47  1  0
 23 48  1  0
 24 49  1  0
 24 50  1  0
 26 51  1  0
 27 52  1  0
 30 53  1  0
 32 54  1  0
 32 55  1  0
M  END
>  <Energy>  (311) 
60.801907221536773

>  <compound_id>  (311) 
1632

>  <target_id>  (311) 
1

>  <reference_id>  (311) 
13

>  <inspiration_ids>  (311) 
[13, 144]

>  <energy_score>  (311) 
-5.912864250092639

>  <distance_score>  (311) 
0.8065333694655149

>  <path>  (311) 
/opt/xchem-fragalysis-2/maxwin/BulkDock/SCRATCH/505732/C1632-P13/C1632-P13.minimised.mol

>  <scratch_subdir>  (311) 
/opt/xchem-fragalysis-2/maxwin/BulkDock/SCRATCH/505732/C1632-P13

>  <fragmenstein_runtime>  (311) 
2.9105091094970703

>  <fragmenstein_outcome>  (311) 
acceptable

>  <fragmenstein_mode>  (311) 
expansion

>  <fragmenstein_error>  (311) 


$$$$
C1632-P144
     RDKit          3D

 55 59  0  0  0  0  0  0  0  0999 V2000
   -1.9724    0.0491   31.5126 C   0  0  0  0  0  0  0  0  0  0  0  0
   -0.5172   -0.3490   31.5592 C   0  0  0  0  0  0  0  0  0  0  0  0
   -0.2453   -2.0591   31.2227 S   0  0  0  0  0  0  0  0  0  0  0  0
    1.1795   -2.2988   31.1815 O   0  0  0  0  0  0  0  0  0  0  0  0
   -1.1913   -2.8384   32.1308 N   0  0  0  0  0  0  0  0  0  0  0  0
   -0.5123   -3.2785   33.3650 C   0  0  0  0  0  0  0  0  0  0  0  0
   -0.0886   -4.7252   33.2514 C   0  0  0  0  0  0  0  0  0  0  0  0
   -0.2923   -5.4613   32.1232 C   0  0  0  0  0  0  0  0  0  0  0  0
   -0.7774   -6.7792   32.2984 C   0  0  0  0  0  0  0  0  0  0  0  0
   -1.3400   -7.6510   31.4891 N   0  0  0  0  0  0  0  0  0  0  0  0
   -2.0760   -8.5057   32.2836 N   0  0  0  0  0  0  0  0  0  0  0  0
   -1.9095   -8.1504   33.5398 C   0  0  0  0  0  0  0  0  0  0  0  0
   -2.6239   -8.4777   34.6554 N   0  0  0  0  0  0  0  0  0  0  0  0
   -0.9518   -7.1841   33.6042 N   0  0  0  0  0  0  0  0  0  0  0  0
   -0.3707   -6.5822   34.7057 C   0  0  0  0  0  0  0  0  0  0  0  0
    0.1960   -5.3730   34.5544 C   0  0  0  0  0  0  0  0  0  0  0  0
    0.8771   -4.7530   35.7193 C   0  0  0  0  0  0  0  0  0  0  0  0
    1.6998   -5.4866   36.5776 C   0  0  0  0  0  0  0  0  0  0  0  0
    2.3486   -4.9460   37.6399 N   0  0  0  0  0  0  0  0  0  0  0  0
    2.1443   -3.6255   37.8243 C   0  0  0  0  0  0  0  0  0  0  0  0
    1.3404   -2.8819   36.9802 C   0  0  0  0  0  0  0  0  0  0  0  0
    0.7023   -3.4232   35.9142 N   0  0  0  0  0  0  0  0  0  0  0  0
   -0.7809   -2.5161   29.7277 N   0  0  0  0  0  0  0  0  0  0  0  0
   -0.0269   -2.2244   28.5361 C   0  0  0  0  0  0  0  0  0  0  0  0
   -0.1537   -0.7893   28.0997 C   0  0  0  0  0  0  0  0  0  0  0  0
    0.8857    0.1401   28.3199 C   0  0  0  0  0  0  0  0  0  0  0  0
    0.7673    1.4648   27.8841 C   0  0  0  0  0  0  0  0  0  0  0  0
   -0.3786    1.8205   27.2065 C   0  0  0  0  0  0  0  0  0  0  0  0
   -1.3869    0.9218   26.9790 C   0  0  0  0  0  0  0  0  0  0  0  0
   -1.3162   -0.3744   27.4373 C   0  0  0  0  0  0  0  0  0  0  0  0
   -2.3953    1.4482   26.2342 O   0  0  0  0  0  0  0  0  0  0  0  0
   -1.9027    2.7812   26.0061 C   0  0  0  0  0  0  0  0  0  0  0  0
   -0.6398    3.0368   26.6604 O   0  0  0  0  0  0  0  0  0  0  0  0
   -2.6170   -0.6230   32.0858 H   0  0  0  0  0  0  0  0  0  0  0  0
   -2.0774    1.0427   31.9497 H   0  0  0  0  0  0  0  0  0  0  0  0
   -2.3348    0.0736   30.4826 H   0  0  0  0  0  0  0  0  0  0  0  0
    0.0804    0.2530   30.8753 H   0  0  0  0  0  0  0  0  0  0  0  0
   -0.1198   -0.1719   32.5654 H   0  0  0  0  0  0  0  0  0  0  0  0
    0.3390   -2.6351   33.6161 H   0  0  0  0  0  0  0  0  0  0  0  0
   -1.2457   -3.1682   34.1727 H   0  0  0  0  0  0  0  0  0  0  0  0
   -0.5144   -5.0076   31.1640 H   0  0  0  0  0  0  0  0  0  0  0  0
   -2.1849   -9.2993   35.1158 H   0  0  0  0  0  0  0  0  0  0  0  0
   -3.5348   -8.8292   34.3772 H   0  0  0  0  0  0  0  0  0  0  0  0
   -0.4459   -7.1224   35.6429 H   0  0  0  0  0  0  0  0  0  0  0  0
    1.8767   -6.5475   36.4363 H   0  0  0  0  0  0  0  0  0  0  0  0
    2.6480   -3.1769   38.6729 H   0  0  0  0  0  0  0  0  0  0  0  0
    1.1855   -1.8205   37.1382 H   0  0  0  0  0  0  0  0  0  0  0  0
   -1.7628   -2.3106   29.6109 H   0  0  0  0  0  0  0  0  0  0  0  0
    1.0288   -2.5000   28.6443 H   0  0  0  0  0  0  0  0  0  0  0  0
   -0.4038   -2.8802   27.7546 H   0  0  0  0  0  0  0  0  0  0  0  0
    1.7966   -0.1740   28.8273 H   0  0  0  0  0  0  0  0  0  0  0  0
    1.5626    2.1840   28.0443 H   0  0  0  0  0  0  0  0  0  0  0  0
   -2.1106   -1.0786   27.2091 H   0  0  0  0  0  0  0  0  0  0  0  0
   -2.6369    3.5150   26.3449 H   0  0  0  0  0  0  0  0  0  0  0  0
   -1.7628    2.9163   24.9268 H   0  0  0  0  0  0  0  0  0  0  0  0
  1  2  1  0
  2  3  1  0
  3  4  2  0
  3  5  2  0
  5  6  1  0
  6  7  1  0
  7  8  2  0
  8  9  1  0
  9 10  2  0
 10 11  1  0
 11 12  2  0
 12 13  1  0
 12 14  1  0
 14 15  1  0
 15 16  2  0
 16 17  1  0
 17 18  2  0
 18 19  1  0
 19 20  2  0
 20 21  1  0
 21 22  2  0
  3 23  1  0
 23 24  1  0
 24 25  1  0
 25 26  2  0
 26 27  1  0
 27 28  2  0
 28 29  1  0
 29 30  2  0
 29 31  1  0
 31 32  1  0
 32 33  1  0
 16  7  1  0
 22 17  1  0
 30 25  1  0
 14  9  1  0
 33 28  1  0
  1 34  1  0
  1 35  1  0
  1 36  1  0
  2 37  1  0
  2 38  1  0
  6 39  1  0
  6 40  1  0
  8 41  1  0
 13 42  1  0
 13 43  1  0
 15 44  1  0
 18 45  1  0
 20 46  1  0
 21 47  1  0
 23 48  1  0
 24 49  1  0
 24 50  1  0
 26 51  1  0
 27 52  1  0
 30 53  1  0
 32 54  1  0
 32 55  1  0
M  END
>  <Energy>  (312) 
17.249658112756588

>  <compound_id>  (312) 
1632

>  <target_id>  (312) 
1

>  <reference_id>  (312) 
144

>  <inspiration_ids>  (312) 
[13, 144]

>  <energy_score>  (312) 
-49.46511335887149

>  <distance_score>  (312) 
1.1477372672172979

>  <path>  (312) 
/opt/xchem-fragalysis-2/maxwin/BulkDock/SCRATCH/505732/C1632-P144/C1632-P144.minimised.mol

>  <scratch_subdir>  (312) 
/opt/xchem-fragalysis-2/maxwin/BulkDock/SCRATCH/505732/C1632-P144

>  <fragmenstein_runtime>  (312) 
3.8815765380859375

>  <fragmenstein_outcome>  (312) 
too moved

>  <fragmenstein_mode>  (312) 
expansion

>  <fragmenstein_error>  (312) 


$$$$
C1633-P13
     RDKit          3D

 55 59  0  0  0  0  0  0  0  0999 V2000
   -0.9933    0.2397   32.7015 C   0  0  0  0  0  0  0  0  0  0  0  0
   -0.8398   -0.2522   31.2827 C   0  0  0  0  0  0  0  0  0  0  0  0
   -0.5621   -1.9930   31.2508 S   0  0  0  0  0  0  0  0  0  0  0  0
    0.8528   -2.2552   31.4055 O   0  0  0  0  0  0  0  0  0  0  0  0
   -1.6481   -2.6548   32.0959 N   0  0  0  0  0  0  0  0  0  0  0  0
   -1.1261   -3.7642   32.8846 C   0  0  0  0  0  0  0  0  0  0  0  0
   -0.1567   -3.4767   34.0283 C   0  0  0  0  0  0  0  0  0  0  0  0
   -0.4037   -2.4579   34.9013 N   0  0  0  0  0  0  0  0  0  0  0  0
    0.3637   -2.4432   36.0138 C   0  0  0  0  0  0  0  0  0  0  0  0
    1.3168   -3.4154   36.2762 C   0  0  0  0  0  0  0  0  0  0  0  0
    1.5723   -4.4402   35.4300 N   0  0  0  0  0  0  0  0  0  0  0  0
    0.8528   -4.4256   34.2890 C   0  0  0  0  0  0  0  0  0  0  0  0
    1.0736   -5.5208   33.3329 C   0  0  0  0  0  0  0  0  0  0  0  0
    1.6998   -5.3190   32.0179 C   0  0  0  0  0  0  0  0  0  0  0  0
    1.2952   -6.0032   30.9298 C   0  0  0  0  0  0  0  0  0  0  0  0
    0.2799   -6.9827   31.0691 C   0  0  0  0  0  0  0  0  0  0  0  0
   -0.3749   -7.7247   30.2050 N   0  0  0  0  0  0  0  0  0  0  0  0
   -1.3567   -8.3894   30.8910 N   0  0  0  0  0  0  0  0  0  0  0  0
   -1.2732   -8.0498   32.1495 C   0  0  0  0  0  0  0  0  0  0  0  0
   -2.1485   -8.3489   33.1181 N   0  0  0  0  0  0  0  0  0  0  0  0
   -0.2039   -7.2206   32.3434 N   0  0  0  0  0  0  0  0  0  0  0  0
    0.2022   -6.5384   33.4811 C   0  0  0  0  0  0  0  0  0  0  0  0
   -0.9158   -2.6453   29.7619 N   0  0  0  0  0  0  0  0  0  0  0  0
   -0.1401   -2.3252   28.5851 C   0  0  0  0  0  0  0  0  0  0  0  0
   -0.3473   -0.9079   28.1159 C   0  0  0  0  0  0  0  0  0  0  0  0
    0.6907    0.0474   28.2138 C   0  0  0  0  0  0  0  0  0  0  0  0
    0.4871    1.3717   27.8125 C   0  0  0  0  0  0  0  0  0  0  0  0
   -0.7500    1.7053   27.3053 C   0  0  0  0  0  0  0  0  0  0  0  0
   -1.7579    0.7809   27.1902 C   0  0  0  0  0  0  0  0  0  0  0  0
   -1.5911   -0.5264   27.5872 C   0  0  0  0  0  0  0  0  0  0  0  0
   -2.8818    1.3058   26.6379 O   0  0  0  0  0  0  0  0  0  0  0  0
   -2.4952    2.6831   26.4786 C   0  0  0  0  0  0  0  0  0  0  0  0
   -1.1176    2.9305   26.8451 O   0  0  0  0  0  0  0  0  0  0  0  0
   -0.8487    1.3189   32.7534 H   0  0  0  0  0  0  0  0  0  0  0  0
   -1.9798   -0.0029   33.1082 H   0  0  0  0  0  0  0  0  0  0  0  0
   -0.2366   -0.1986   33.3596 H   0  0  0  0  0  0  0  0  0  0  0  0
   -1.7373   -0.0268   30.7013 H   0  0  0  0  0  0  0  0  0  0  0  0
    0.0259    0.2307   30.8271 H   0  0  0  0  0  0  0  0  0  0  0  0
   -0.7281   -4.4550   32.1446 H   0  0  0  0  0  0  0  0  0  0  0  0
   -1.9265   -4.3215   33.3217 H   0  0  0  0  0  0  0  0  0  0  0  0
    0.1787   -1.6304   36.7070 H   0  0  0  0  0  0  0  0  0  0  0  0
    1.9058   -3.3939   37.1866 H   0  0  0  0  0  0  0  0  0  0  0  0
    2.4453   -4.5310   31.9311 H   0  0  0  0  0  0  0  0  0  0  0  0
    1.7069   -5.8030   29.9474 H   0  0  0  0  0  0  0  0  0  0  0  0
   -2.8802   -8.9598   32.7446 H   0  0  0  0  0  0  0  0  0  0  0  0
   -1.7559   -8.8259   33.9395 H   0  0  0  0  0  0  0  0  0  0  0  0
   -0.3873   -6.7048   34.3776 H   0  0  0  0  0  0  0  0  0  0  0  0
   -1.9051   -2.5316   29.5728 H   0  0  0  0  0  0  0  0  0  0  0  0
   -0.4391   -3.0169   27.7979 H   0  0  0  0  0  0  0  0  0  0  0  0
    0.9244   -2.5239   28.7563 H   0  0  0  0  0  0  0  0  0  0  0  0
    1.6594   -0.2419   28.6167 H   0  0  0  0  0  0  0  0  0  0  0  0
    1.2737    2.1130   27.8903 H   0  0  0  0  0  0  0  0  0  0  0  0
   -2.3921   -1.2474   27.4506 H   0  0  0  0  0  0  0  0  0  0  0  0
   -2.6320    2.9667   25.4290 H   0  0  0  0  0  0  0  0  0  0  0  0
   -3.1397    3.3117   27.1005 H   0  0  0  0  0  0  0  0  0  0  0  0
  1  2  1  0
  2  3  1  0
  3  4  2  0
  3  5  2  0
  5  6  1  0
  6  7  1  0
  7  8  2  0
  8  9  1  0
  9 10  2  0
 10 11  1  0
 11 12  2  0
 12 13  1  0
 13 14  1  0
 14 15  2  0
 15 16  1  0
 16 17  2  0
 17 18  1  0
 18 19  2  0
 19 20  1  0
 19 21  1  0
 21 22  1  0
  3 23  1  0
 23 24  1  0
 24 25  1  0
 25 26  2  0
 26 27  1  0
 27 28  2  0
 28 29  1  0
 29 30  2  0
 29 31  1  0
 31 32  1  0
 32 33  1  0
 12  7  1  0
 22 13  2  0
 30 25  1  0
 21 16  1  0
 33 28  1  0
  1 34  1  0
  1 35  1  0
  1 36  1  0
  2 37  1  0
  2 38  1  0
  6 39  1  0
  6 40  1  0
  9 41  1  0
 10 42  1  0
 14 43  1  0
 15 44  1  0
 20 45  1  0
 20 46  1  0
 22 47  1  0
 23 48  1  0
 24 49  1  0
 24 50  1  0
 26 51  1  0
 27 52  1  0
 30 53  1  0
 32 54  1  0
 32 55  1  0
M  END
>  <Energy>  (313) 
33.213674018132394

>  <compound_id>  (313) 
1633

>  <target_id>  (313) 
1

>  <reference_id>  (313) 
13

>  <inspiration_ids>  (313) 
[13, 145]

>  <energy_score>  (313) 
-54.8883375589221

>  <distance_score>  (313) 
1.1004318598577465

>  <path>  (313) 
/opt/xchem-fragalysis-2/maxwin/BulkDock/SCRATCH/505732/C1633-P13/C1633-P13.minimised.mol

>  <scratch_subdir>  (313) 
/opt/xchem-fragalysis-2/maxwin/BulkDock/SCRATCH/505732/C1633-P13

>  <fragmenstein_runtime>  (313) 
5.150176048278809

>  <fragmenstein_outcome>  (313) 
too moved

>  <fragmenstein_mode>  (313) 
expansion

>  <fragmenstein_error>  (313) 


$$$$
C1633-P145
     RDKit          3D

 55 59  0  0  0  0  0  0  0  0999 V2000
   -2.0956    0.0450   31.5829 C   0  0  0  0  0  0  0  0  0  0  0  0
   -0.6239   -0.2681   31.6183 C   0  0  0  0  0  0  0  0  0  0  0  0
   -0.2685   -1.9854   31.4482 S   0  0  0  0  0  0  0  0  0  0  0  0
    1.1671   -2.1218   31.3786 O   0  0  0  0  0  0  0  0  0  0  0  0
   -1.1547   -2.7478   32.4359 N   0  0  0  0  0  0  0  0  0  0  0  0
   -0.9159   -2.4668   33.8816 C   0  0  0  0  0  0  0  0  0  0  0  0
    0.4294   -2.8247   34.4843 C   0  0  0  0  0  0  0  0  0  0  0  0
    0.9566   -1.9018   35.3494 N   0  0  0  0  0  0  0  0  0  0  0  0
    2.0312   -2.2995   36.0665 C   0  0  0  0  0  0  0  0  0  0  0  0
    2.5554   -3.5733   35.9650 C   0  0  0  0  0  0  0  0  0  0  0  0
    2.0511   -4.4974   35.1190 N   0  0  0  0  0  0  0  0  0  0  0  0
    1.0111   -4.0904   34.3489 C   0  0  0  0  0  0  0  0  0  0  0  0
    0.5522   -5.0990   33.4003 C   0  0  0  0  0  0  0  0  0  0  0  0
    0.8640   -5.0888   31.9715 C   0  0  0  0  0  0  0  0  0  0  0  0
    0.2435   -5.8955   31.0940 C   0  0  0  0  0  0  0  0  0  0  0  0
   -0.6294   -6.8882   31.5910 C   0  0  0  0  0  0  0  0  0  0  0  0
   -1.3069   -7.8487   31.0096 N   0  0  0  0  0  0  0  0  0  0  0  0
   -1.9794   -8.5256   31.9992 N   0  0  0  0  0  0  0  0  0  0  0  0
   -1.6918   -7.9771   33.1582 C   0  0  0  0  0  0  0  0  0  0  0  0
   -2.1918   -8.2703   34.3915 N   0  0  0  0  0  0  0  0  0  0  0  0
   -0.8243   -6.9388   32.9605 N   0  0  0  0  0  0  0  0  0  0  0  0
   -0.2633   -6.0577   33.8646 C   0  0  0  0  0  0  0  0  0  0  0  0
   -0.8090   -2.5712   29.9760 N   0  0  0  0  0  0  0  0  0  0  0  0
   -0.0950   -2.3027   28.7406 C   0  0  0  0  0  0  0  0  0  0  0  0
   -0.2123   -0.8682   28.2889 C   0  0  0  0  0  0  0  0  0  0  0  0
    0.8597    0.0389   28.4448 C   0  0  0  0  0  0  0  0  0  0  0  0
    0.7326    1.3787   28.0550 C   0  0  0  0  0  0  0  0  0  0  0  0
   -0.4601    1.7772   27.4920 C   0  0  0  0  0  0  0  0  0  0  0  0
   -1.4932    0.8966   27.3056 C   0  0  0  0  0  0  0  0  0  0  0  0
   -1.4053   -0.4207   27.7044 C   0  0  0  0  0  0  0  0  0  0  0  0
   -2.5491    1.4686   26.6671 O   0  0  0  0  0  0  0  0  0  0  0  0
   -2.1038    2.8316   26.5537 C   0  0  0  0  0  0  0  0  0  0  0  0
   -0.7514    3.0206   27.0262 O   0  0  0  0  0  0  0  0  0  0  0  0
   -2.2202    1.0439   31.9920 H   0  0  0  0  0  0  0  0  0  0  0  0
   -2.4830    0.0205   30.5620 H   0  0  0  0  0  0  0  0  0  0  0  0
   -2.7020   -0.6295   32.1928 H   0  0  0  0  0  0  0  0  0  0  0  0
   -0.0839    0.2971   30.8619 H   0  0  0  0  0  0  0  0  0  0  0  0
   -0.1987    0.0421   32.5794 H   0  0  0  0  0  0  0  0  0  0  0  0
   -1.6577   -2.9677   34.4938 H   0  0  0  0  0  0  0  0  0  0  0  0
   -1.1045   -1.4022   34.0685 H   0  0  0  0  0  0  0  0  0  0  0  0
    2.4525   -1.5655   36.7443 H   0  0  0  0  0  0  0  0  0  0  0  0
    3.4040   -3.8871   36.5623 H   0  0  0  0  0  0  0  0  0  0  0  0
    1.6032   -4.3756   31.6244 H   0  0  0  0  0  0  0  0  0  0  0  0
    0.4392   -5.8346   30.0313 H   0  0  0  0  0  0  0  0  0  0  0  0
   -3.0702   -8.7735   34.2754 H   0  0  0  0  0  0  0  0  0  0  0  0
   -1.6358   -9.0267   34.8271 H   0  0  0  0  0  0  0  0  0  0  0  0
   -0.5589   -6.1576   34.9025 H   0  0  0  0  0  0  0  0  0  0  0  0
   -1.7907   -2.3537   29.8709 H   0  0  0  0  0  0  0  0  0  0  0  0
   -0.5039   -2.9573   27.9659 H   0  0  0  0  0  0  0  0  0  0  0  0
    0.9589   -2.5923   28.8273 H   0  0  0  0  0  0  0  0  0  0  0  0
    1.7976   -0.2986   28.8840 H   0  0  0  0  0  0  0  0  0  0  0  0
    1.5520    2.0786   28.1760 H   0  0  0  0  0  0  0  0  0  0  0  0
   -2.2217   -1.1083   27.5058 H   0  0  0  0  0  0  0  0  0  0  0  0
   -2.1483    3.1273   25.4994 H   0  0  0  0  0  0  0  0  0  0  0  0
   -2.7729    3.4801   27.1286 H   0  0  0  0  0  0  0  0  0  0  0  0
  1  2  1  0
  2  3  1  0
  3  4  2  0
  3  5  2  0
  5  6  1  0
  6  7  1  0
  7  8  2  0
  8  9  1  0
  9 10  2  0
 10 11  1  0
 11 12  2  0
 12 13  1  0
 13 14  1  0
 14 15  2  0
 15 16  1  0
 16 17  2  0
 17 18  1  0
 18 19  2  0
 19 20  1  0
 19 21  1  0
 21 22  1  0
  3 23  1  0
 23 24  1  0
 24 25  1  0
 25 26  2  0
 26 27  1  0
 27 28  2  0
 28 29  1  0
 29 30  2  0
 29 31  1  0
 31 32  1  0
 32 33  1  0
 12  7  1  0
 22 13  2  0
 30 25  1  0
 21 16  1  0
 33 28  1  0
  1 34  1  0
  1 35  1  0
  1 36  1  0
  2 37  1  0
  2 38  1  0
  6 39  1  0
  6 40  1  0
  9 41  1  0
 10 42  1  0
 14 43  1  0
 15 44  1  0
 20 45  1  0
 20 46  1  0
 22 47  1  0
 23 48  1  0
 24 49  1  0
 24 50  1  0
 26 51  1  0
 27 52  1  0
 30 53  1  0
 32 54  1  0
 32 55  1  0
M  END
>  <Energy>  (314) 
25.603607088158796

>  <compound_id>  (314) 
1633

>  <target_id>  (314) 
1

>  <reference_id>  (314) 
145

>  <inspiration_ids>  (314) 
[13, 145]

>  <energy_score>  (314) 
-62.498404488897194

>  <distance_score>  (314) 
0.8733299186182759

>  <path>  (314) 
/opt/xchem-fragalysis-2/maxwin/BulkDock/SCRATCH/505732/C1633-P145/C1633-P145.minimised.mol

>  <scratch_subdir>  (314) 
/opt/xchem-fragalysis-2/maxwin/BulkDock/SCRATCH/505732/C1633-P145

>  <fragmenstein_runtime>  (314) 
5.114919900894165

>  <fragmenstein_outcome>  (314) 
acceptable

>  <fragmenstein_mode>  (314) 
expansion

>  <fragmenstein_error>  (314) 


$$$$
C1634-P13
     RDKit          3D

 58 62  0  0  0  0  0  0  0  0999 V2000
   -2.6500   -0.5158   34.5232 C   0  0  0  0  0  0  0  0  0  0  0  0
   -2.9166   -1.4756   33.3810 C   0  0  0  0  0  0  0  0  0  0  0  0
   -1.5503   -2.5497   32.9806 S   0  0  0  0  0  0  0  0  0  0  0  0
   -2.0758   -3.5875   32.1181 O   0  0  0  0  0  0  0  0  0  0  0  0
   -0.6759   -2.7525   34.2186 N   0  0  0  0  0  0  0  0  0  0  0  0
    0.3991   -3.7256   34.4332 C   0  0  0  0  0  0  0  0  0  0  0  0
    0.1238   -5.1281   33.9244 C   0  0  0  0  0  0  0  0  0  0  0  0
   -0.6090   -6.0328   34.8120 C   0  0  0  0  0  0  0  0  0  0  0  0
   -1.1697   -7.1661   34.3553 C   0  0  0  0  0  0  0  0  0  0  0  0
   -1.0582   -7.4987   32.9824 C   0  0  0  0  0  0  0  0  0  0  0  0
   -1.6152   -8.4376   32.2489 N   0  0  0  0  0  0  0  0  0  0  0  0
   -1.1062   -8.3425   30.9823 N   0  0  0  0  0  0  0  0  0  0  0  0
   -0.2530   -7.3436   30.9784 C   0  0  0  0  0  0  0  0  0  0  0  0
   -0.2391   -6.7092   32.1919 N   0  0  0  0  0  0  0  0  0  0  0  0
    0.3902   -5.5386   32.6565 C   0  0  0  0  0  0  0  0  0  0  0  0
    1.0039   -4.6452   31.8304 N   0  0  0  0  0  0  0  0  0  0  0  0
    0.7233   -4.2925   30.3564 C   0  0  0  0  0  0  0  0  0  0  0  0
   -0.0052   -4.7537   29.6176 O   0  0  0  0  0  0  0  0  0  0  0  0
    1.6529   -3.0576   30.2100 N   0  0  0  0  0  0  0  0  0  0  0  0
    1.7677   -2.1642   29.2025 C   0  0  0  0  0  0  0  0  0  0  0  0
    2.4855   -0.9660   29.1010 C   0  0  0  0  0  0  0  0  0  0  0  0
    2.0572   -0.2136   28.0842 N   0  0  0  0  0  0  0  0  0  0  0  0
    1.0434   -0.9347   27.5751 N   0  0  0  0  0  0  0  0  0  0  0  0
    0.9012   -2.1564   28.1510 C   0  0  0  0  0  0  0  0  0  0  0  0
   -0.5020   -1.7648   31.9235 N   0  0  0  0  0  0  0  0  0  0  0  0
   -0.5704   -0.3742   31.5127 C   0  0  0  0  0  0  0  0  0  0  0  0
   -1.0107   -0.1233   30.0820 C   0  0  0  0  0  0  0  0  0  0  0  0
   -1.7874   -1.0355   29.3383 C   0  0  0  0  0  0  0  0  0  0  0  0
   -2.1897   -0.7472   28.0261 C   0  0  0  0  0  0  0  0  0  0  0  0
   -1.9321    0.5053   27.5223 C   0  0  0  0  0  0  0  0  0  0  0  0
   -1.1716    1.4028   28.2206 C   0  0  0  0  0  0  0  0  0  0  0  0
   -0.6497    1.0944   29.4660 C   0  0  0  0  0  0  0  0  0  0  0  0
   -1.0478    2.5881   27.5647 O   0  0  0  0  0  0  0  0  0  0  0  0
   -1.9934    2.3923   26.4911 C   0  0  0  0  0  0  0  0  0  0  0  0
   -2.3877    1.0127   26.3476 O   0  0  0  0  0  0  0  0  0  0  0  0
   -3.5002    0.1617   34.6507 H   0  0  0  0  0  0  0  0  0  0  0  0
   -1.7555    0.0892   34.3520 H   0  0  0  0  0  0  0  0  0  0  0  0
   -2.5125   -1.0558   35.4656 H   0  0  0  0  0  0  0  0  0  0  0  0
   -3.7651   -2.1160   33.6380 H   0  0  0  0  0  0  0  0  0  0  0  0
   -3.1962   -0.9380   32.4700 H   0  0  0  0  0  0  0  0  0  0  0  0
    0.5972   -3.7702   35.5124 H   0  0  0  0  0  0  0  0  0  0  0  0
    1.3270   -3.3182   34.0188 H   0  0  0  0  0  0  0  0  0  0  0  0
   -0.7188   -5.7540   35.8569 H   0  0  0  0  0  0  0  0  0  0  0  0
   -1.7173   -7.8386   35.0043 H   0  0  0  0  0  0  0  0  0  0  0  0
    0.3616   -7.0471   30.1471 H   0  0  0  0  0  0  0  0  0  0  0  0
    1.6523   -3.9863   32.2167 H   0  0  0  0  0  0  0  0  0  0  0  0
    2.1090   -2.8728   31.0832 H   0  0  0  0  0  0  0  0  0  0  0  0
    3.2569   -0.5717   29.7479 H   0  0  0  0  0  0  0  0  0  0  0  0
    0.4635   -0.5265   26.8513 H   0  0  0  0  0  0  0  0  0  0  0  0
    0.0999   -2.8223   27.8644 H   0  0  0  0  0  0  0  0  0  0  0  0
   -0.4903   -2.3442   31.0924 H   0  0  0  0  0  0  0  0  0  0  0  0
    0.4460    0.0246   31.6180 H   0  0  0  0  0  0  0  0  0  0  0  0
   -1.2001    0.2228   32.1755 H   0  0  0  0  0  0  0  0  0  0  0  0
   -2.0683   -2.0089   29.7357 H   0  0  0  0  0  0  0  0  0  0  0  0
   -2.7343   -1.4828   27.4425 H   0  0  0  0  0  0  0  0  0  0  0  0
   -0.0214    1.8221   29.9721 H   0  0  0  0  0  0  0  0  0  0  0  0
   -2.8841    3.0052   26.6782 H   0  0  0  0  0  0  0  0  0  0  0  0
   -1.5292    2.7208   25.5550 H   0  0  0  0  0  0  0  0  0  0  0  0
  1  2  1  0
  2  3  1  0
  3  4  2  0
  3  5  2  0
  5  6  1  0
  6  7  1  0
  7  8  1  0
  8  9  2  0
  9 10  1  0
 10 11  2  0
 11 12  1  0
 12 13  2  0
 13 14  1  0
 14 15  1  0
 15 16  1  0
 16 17  1  0
 17 18  2  0
 17 19  1  0
 19 20  1  0
 20 21  1  0
 21 22  2  0
 22 23  1  0
 23 24  1  0
  3 25  1  0
 25 26  1  0
 26 27  1  0
 27 28  2  0
 28 29  1  0
 29 30  2  0
 30 31  1  0
 31 32  2  0
 31 33  1  0
 33 34  1  0
 34 35  1  0
 15  7  2  0
 24 20  2  0
 32 27  1  0
 14 10  1  0
 35 30  1  0
  1 36  1  0
  1 37  1  0
  1 38  1  0
  2 39  1  0
  2 40  1  0
  6 41  1  0
  6 42  1  0
  8 43  1  0
  9 44  1  0
 13 45  1  0
 16 46  1  0
 19 47  1  0
 21 48  1  0
 23 49  1  0
 24 50  1  0
 25 51  1  0
 26 52  1  0
 26 53  1  0
 28 54  1  0
 29 55  1  0
 32 56  1  0
 34 57  1  0
 34 58  1  0
M  END
>  <Energy>  (315) 
-45.46833502360959

>  <compound_id>  (315) 
1634

>  <target_id>  (315) 
1

>  <reference_id>  (315) 
13

>  <inspiration_ids>  (315) 
[13, 147]

>  <energy_score>  (315) 
-59.704280648633414

>  <distance_score>  (315) 
1.5699110315224682

>  <path>  (315) 
/opt/xchem-fragalysis-2/maxwin/BulkDock/SCRATCH/505732/C1634-P13/C1634-P13.minimised.mol

>  <scratch_subdir>  (315) 
/opt/xchem-fragalysis-2/maxwin/BulkDock/SCRATCH/505732/C1634-P13

>  <fragmenstein_runtime>  (315) 
7.446832656860352

>  <fragmenstein_outcome>  (315) 
too moved

>  <fragmenstein_mode>  (315) 
expansion

>  <fragmenstein_error>  (315) 


$$$$
C1634-P147
     RDKit          3D

 58 62  0  0  0  0  0  0  0  0999 V2000
   -1.8440   -0.3729   34.7285 C   0  0  0  0  0  0  0  0  0  0  0  0
   -2.6009   -1.3907   33.8994 C   0  0  0  0  0  0  0  0  0  0  0  0
   -1.5686   -2.4225   32.8858 S   0  0  0  0  0  0  0  0  0  0  0  0
   -2.3943   -3.4519   32.2909 O   0  0  0  0  0  0  0  0  0  0  0  0
   -0.1962   -2.6798   33.5588 N   0  0  0  0  0  0  0  0  0  0  0  0
   -0.1323   -3.7858   34.5779 C   0  0  0  0  0  0  0  0  0  0  0  0
   -0.1437   -5.1890   33.9571 C   0  0  0  0  0  0  0  0  0  0  0  0
   -0.7757   -6.2212   34.7721 C   0  0  0  0  0  0  0  0  0  0  0  0
   -1.2307   -7.3559   34.2223 C   0  0  0  0  0  0  0  0  0  0  0  0
   -1.0717   -7.5735   32.8318 C   0  0  0  0  0  0  0  0  0  0  0  0
   -1.5511   -8.4999   32.0340 N   0  0  0  0  0  0  0  0  0  0  0  0
   -1.0465   -8.2813   30.7851 N   0  0  0  0  0  0  0  0  0  0  0  0
   -0.2636   -7.2284   30.8571 C   0  0  0  0  0  0  0  0  0  0  0  0
   -0.2938   -6.6744   32.1086 N   0  0  0  0  0  0  0  0  0  0  0  0
    0.2091   -5.4874   32.6731 C   0  0  0  0  0  0  0  0  0  0  0  0
    0.8393   -4.4660   32.0260 N   0  0  0  0  0  0  0  0  0  0  0  0
    0.9660   -4.1648   30.5216 C   0  0  0  0  0  0  0  0  0  0  0  0
    0.6266   -4.7687   29.6196 O   0  0  0  0  0  0  0  0  0  0  0  0
    1.5996   -2.7487   30.6007 N   0  0  0  0  0  0  0  0  0  0  0  0
    1.8268   -1.8367   29.6296 C   0  0  0  0  0  0  0  0  0  0  0  0
    2.4409   -0.5795   29.6664 C   0  0  0  0  0  0  0  0  0  0  0  0
    2.1600    0.1447   28.5806 N   0  0  0  0  0  0  0  0  0  0  0  0
    1.3278   -0.6495   27.8877 N   0  0  0  0  0  0  0  0  0  0  0  0
    1.1795   -1.8863   28.4322 C   0  0  0  0  0  0  0  0  0  0  0  0
   -1.1359   -1.6120   31.5117 N   0  0  0  0  0  0  0  0  0  0  0  0
   -0.9505   -0.2073   31.2804 C   0  0  0  0  0  0  0  0  0  0  0  0
   -1.1327    0.1440   29.8145 C   0  0  0  0  0  0  0  0  0  0  0  0
   -1.6986   -0.7677   28.8946 C   0  0  0  0  0  0  0  0  0  0  0  0
   -1.9647   -0.3997   27.5773 C   0  0  0  0  0  0  0  0  0  0  0  0
   -1.7919    0.9148   27.2309 C   0  0  0  0  0  0  0  0  0  0  0  0
   -1.1899    1.7987   28.0842 C   0  0  0  0  0  0  0  0  0  0  0  0
   -0.7815    1.4220   29.3488 C   0  0  0  0  0  0  0  0  0  0  0  0
   -1.1144    3.0483   27.5537 O   0  0  0  0  0  0  0  0  0  0  0  0
   -1.9472    2.8858   26.3862 C   0  0  0  0  0  0  0  0  0  0  0  0
   -2.2097    1.5021   26.0805 O   0  0  0  0  0  0  0  0  0  0  0  0
   -2.5468    0.2650   35.2735 H   0  0  0  0  0  0  0  0  0  0  0  0
   -1.2110    0.2701   34.1117 H   0  0  0  0  0  0  0  0  0  0  0  0
   -1.2014   -0.8639   35.4662 H   0  0  0  0  0  0  0  0  0  0  0  0
   -3.1641   -2.0537   34.5625 H   0  0  0  0  0  0  0  0  0  0  0  0
   -3.3206   -0.8986   33.2373 H   0  0  0  0  0  0  0  0  0  0  0  0
   -0.9608   -3.6605   35.2864 H   0  0  0  0  0  0  0  0  0  0  0  0
    0.7975   -3.6686   35.1470 H   0  0  0  0  0  0  0  0  0  0  0  0
   -0.8997   -6.0471   35.8376 H   0  0  0  0  0  0  0  0  0  0  0  0
   -1.7261   -8.1149   34.8144 H   0  0  0  0  0  0  0  0  0  0  0  0
    0.3221   -6.8550   30.0388 H   0  0  0  0  0  0  0  0  0  0  0  0
    1.1751   -3.6745   32.5608 H   0  0  0  0  0  0  0  0  0  0  0  0
    1.8568   -2.5448   31.5527 H   0  0  0  0  0  0  0  0  0  0  0  0
    3.0346   -0.1303   30.4507 H   0  0  0  0  0  0  0  0  0  0  0  0
    0.8535   -0.2647   27.0798 H   0  0  0  0  0  0  0  0  0  0  0  0
    0.4940   -2.6100   28.0220 H   0  0  0  0  0  0  0  0  0  0  0  0
   -0.4605   -2.1574   30.9969 H   0  0  0  0  0  0  0  0  0  0  0  0
    0.0423    0.1031   31.6221 H   0  0  0  0  0  0  0  0  0  0  0  0
   -1.6984    0.3685   31.8335 H   0  0  0  0  0  0  0  0  0  0  0  0
   -1.9407   -1.7903   29.1802 H   0  0  0  0  0  0  0  0  0  0  0  0
   -2.3767   -1.1212   26.8821 H   0  0  0  0  0  0  0  0  0  0  0  0
   -0.2586    2.1340   29.9783 H   0  0  0  0  0  0  0  0  0  0  0  0
   -2.8994    3.4061   26.5471 H   0  0  0  0  0  0  0  0  0  0  0  0
   -1.4370    3.3400   25.5298 H   0  0  0  0  0  0  0  0  0  0  0  0
  1  2  1  0
  2  3  1  0
  3  4  2  0
  3  5  2  0
  5  6  1  0
  6  7  1  0
  7  8  1  0
  8  9  2  0
  9 10  1  0
 10 11  2  0
 11 12  1  0
 12 13  2  0
 13 14  1  0
 14 15  1  0
 15 16  1  0
 16 17  1  0
 17 18  2  0
 17 19  1  0
 19 20  1  0
 20 21  1  0
 21 22  2  0
 22 23  1  0
 23 24  1  0
  3 25  1  0
 25 26  1  0
 26 27  1  0
 27 28  2  0
 28 29  1  0
 29 30  2  0
 30 31  1  0
 31 32  2  0
 31 33  1  0
 33 34  1  0
 34 35  1  0
 15  7  2  0
 24 20  2  0
 32 27  1  0
 14 10  1  0
 35 30  1  0
  1 36  1  0
  1 37  1  0
  1 38  1  0
  2 39  1  0
  2 40  1  0
  6 41  1  0
  6 42  1  0
  8 43  1  0
  9 44  1  0
 13 45  1  0
 16 46  1  0
 19 47  1  0
 21 48  1  0
 23 49  1  0
 24 50  1  0
 25 51  1  0
 26 52  1  0
 26 53  1  0
 28 54  1  0
 29 55  1  0
 32 56  1  0
 34 57  1  0
 34 58  1  0
M  END
>  <Energy>  (316) 
-55.865137056437945

>  <compound_id>  (316) 
1634

>  <target_id>  (316) 
1

>  <reference_id>  (316) 
147

>  <inspiration_ids>  (316) 
[13, 147]

>  <energy_score>  (316) 
-70.10108268146305

>  <distance_score>  (316) 
1.6336439990889267

>  <path>  (316) 
/opt/xchem-fragalysis-2/maxwin/BulkDock/SCRATCH/505732/C1634-P147/C1634-P147.minimised.mol

>  <scratch_subdir>  (316) 
/opt/xchem-fragalysis-2/maxwin/BulkDock/SCRATCH/505732/C1634-P147

>  <fragmenstein_runtime>  (316) 
9.285606384277344

>  <fragmenstein_outcome>  (316) 
too moved

>  <fragmenstein_mode>  (316) 
expansion

>  <fragmenstein_error>  (316) 


$$$$
C1635-P13
     RDKit          3D

 58 62  0  0  0  0  0  0  0  0999 V2000
   -2.3284   -0.5973   31.6881 C   0  0  0  0  0  0  0  0  0  0  0  0
   -0.8615   -0.9285   31.8027 C   0  0  0  0  0  0  0  0  0  0  0  0
   -0.4734   -2.5402   31.1885 S   0  0  0  0  0  0  0  0  0  0  0  0
   -1.4267   -3.4631   31.7691 O   0  0  0  0  0  0  0  0  0  0  0  0
    1.0590   -2.6787   31.2199 N   0  0  0  0  0  0  0  0  0  0  0  0
    1.7276   -3.8706   30.6909 C   0  0  0  0  0  0  0  0  0  0  0  0
    1.2756   -5.0808   31.4404 C   0  0  0  0  0  0  0  0  0  0  0  0
    1.8623   -5.3338   32.7466 C   0  0  0  0  0  0  0  0  0  0  0  0
    1.3311   -6.2616   33.5700 C   0  0  0  0  0  0  0  0  0  0  0  0
    2.0868   -6.5670   34.6814 N   0  0  0  0  0  0  0  0  0  0  0  0
    1.9390   -7.7274   35.7176 C   0  0  0  0  0  0  0  0  0  0  0  0
    1.1293   -8.5260   35.8195 O   0  0  0  0  0  0  0  0  0  0  0  0
    3.2752   -7.5376   36.5078 N   0  0  0  0  0  0  0  0  0  0  0  0
    3.8592   -8.3253   37.4569 C   0  0  0  0  0  0  0  0  0  0  0  0
    5.1267   -8.2272   38.0641 C   0  0  0  0  0  0  0  0  0  0  0  0
    5.3528   -9.2144   38.9344 N   0  0  0  0  0  0  0  0  0  0  0  0
    4.2237   -9.9408   38.8828 N   0  0  0  0  0  0  0  0  0  0  0  0
    3.3091   -9.4564   37.9963 C   0  0  0  0  0  0  0  0  0  0  0  0
    0.1533   -6.9089   33.1231 N   0  0  0  0  0  0  0  0  0  0  0  0
   -0.7904   -7.6952   33.7168 C   0  0  0  0  0  0  0  0  0  0  0  0
   -1.6679   -8.1231   32.8311 N   0  0  0  0  0  0  0  0  0  0  0  0
   -1.3483   -7.5880   31.6189 N   0  0  0  0  0  0  0  0  0  0  0  0
   -0.3184   -6.7999   31.8138 C   0  0  0  0  0  0  0  0  0  0  0  0
    0.2938   -5.8646   30.9578 C   0  0  0  0  0  0  0  0  0  0  0  0
   -0.8359   -2.6576   29.5753 N   0  0  0  0  0  0  0  0  0  0  0  0
   -0.0772   -2.0683   28.5078 C   0  0  0  0  0  0  0  0  0  0  0  0
   -0.4273   -0.6457   28.2033 C   0  0  0  0  0  0  0  0  0  0  0  0
    0.4720    0.3970   28.5201 C   0  0  0  0  0  0  0  0  0  0  0  0
    0.2004    1.7113   28.1380 C   0  0  0  0  0  0  0  0  0  0  0  0
   -0.9682    1.9462   27.4481 C   0  0  0  0  0  0  0  0  0  0  0  0
   -1.8548    0.9399   27.1555 C   0  0  0  0  0  0  0  0  0  0  0  0
   -1.6202   -0.3616   27.5259 C   0  0  0  0  0  0  0  0  0  0  0  0
   -2.9249    1.3785   26.4459 O   0  0  0  0  0  0  0  0  0  0  0  0
   -2.6525    2.7910   26.3892 C   0  0  0  0  0  0  0  0  0  0  0  0
   -1.3728    3.1473   26.9593 O   0  0  0  0  0  0  0  0  0  0  0  0
   -2.9668   -1.4048   32.0591 H   0  0  0  0  0  0  0  0  0  0  0  0
   -2.6070   -0.3954   30.6506 H   0  0  0  0  0  0  0  0  0  0  0  0
   -2.5385    0.2839   32.2940 H   0  0  0  0  0  0  0  0  0  0  0  0
   -0.5708   -0.9294   32.8592 H   0  0  0  0  0  0  0  0  0  0  0  0
   -0.2463   -0.1890   31.2854 H   0  0  0  0  0  0  0  0  0  0  0  0
    1.5531   -3.9960   29.6181 H   0  0  0  0  0  0  0  0  0  0  0  0
    2.8118   -3.7421   30.7940 H   0  0  0  0  0  0  0  0  0  0  0  0
    2.7636   -4.7803   32.9953 H   0  0  0  0  0  0  0  0  0  0  0  0
    2.9625   -6.0936   34.8255 H   0  0  0  0  0  0  0  0  0  0  0  0
    3.7188   -6.6841   36.2220 H   0  0  0  0  0  0  0  0  0  0  0  0
    5.8982   -7.4843   37.9122 H   0  0  0  0  0  0  0  0  0  0  0  0
    4.1500  -10.7628   39.4745 H   0  0  0  0  0  0  0  0  0  0  0  0
    2.3559   -9.9448   37.8490 H   0  0  0  0  0  0  0  0  0  0  0  0
   -0.8135   -7.9266   34.7695 H   0  0  0  0  0  0  0  0  0  0  0  0
   -0.1789   -5.6698   30.0017 H   0  0  0  0  0  0  0  0  0  0  0  0
   -1.8336   -2.5983   29.4026 H   0  0  0  0  0  0  0  0  0  0  0  0
    1.0043   -2.1485   28.6511 H   0  0  0  0  0  0  0  0  0  0  0  0
   -0.2733   -2.6743   27.6290 H   0  0  0  0  0  0  0  0  0  0  0  0
    1.3995    0.1775   29.0454 H   0  0  0  0  0  0  0  0  0  0  0  0
    0.8862    2.5208   28.3597 H   0  0  0  0  0  0  0  0  0  0  0  0
   -2.3095   -1.1482   27.2312 H   0  0  0  0  0  0  0  0  0  0  0  0
   -3.4352    3.3235   26.9332 H   0  0  0  0  0  0  0  0  0  0  0  0
   -2.6689    3.1104   25.3412 H   0  0  0  0  0  0  0  0  0  0  0  0
  1  2  1  0
  2  3  1  0
  3  4  2  0
  3  5  2  0
  5  6  1  0
  6  7  1  0
  7  8  1  0
  8  9  2  0
  9 10  1  0
 10 11  1  0
 11 12  2  0
 11 13  1  0
 13 14  1  0
 14 15  1  0
 15 16  2  0
 16 17  1  0
 17 18  1  0
  9 19  1  0
 19 20  1  0
 20 21  2  0
 21 22  1  0
 22 23  2  0
 23 24  1  0
  3 25  1  0
 25 26  1  0
 26 27  1  0
 27 28  2  0
 28 29  1  0
 29 30  2  0
 30 31  1  0
 31 32  2  0
 31 33  1  0
 33 34  1  0
 34 35  1  0
 24  7  2  0
 32 27  1  0
 18 14  2  0
 23 19  1  0
 35 30  1  0
  1 36  1  0
  1 37  1  0
  1 38  1  0
  2 39  1  0
  2 40  1  0
  6 41  1  0
  6 42  1  0
  8 43  1  0
 10 44  1  0
 13 45  1  0
 15 46  1  0
 17 47  1  0
 18 48  1  0
 20 49  1  0
 24 50  1  0
 25 51  1  0
 26 52  1  0
 26 53  1  0
 28 54  1  0
 29 55  1  0
 32 56  1  0
 34 57  1  0
 34 58  1  0
M  END
>  <Energy>  (317) 
-66.41722953102564

>  <compound_id>  (317) 
1635

>  <target_id>  (317) 
1

>  <reference_id>  (317) 
13

>  <inspiration_ids>  (317) 
[13, 148]

>  <energy_score>  (317) 
-65.91509516494136

>  <distance_score>  (317) 
1.0517020478575727

>  <path>  (317) 
/opt/xchem-fragalysis-2/maxwin/BulkDock/SCRATCH/505732/C1635-P13/C1635-P13.minimised.mol

>  <scratch_subdir>  (317) 
/opt/xchem-fragalysis-2/maxwin/BulkDock/SCRATCH/505732/C1635-P13

>  <fragmenstein_runtime>  (317) 
8.54035997390747

>  <fragmenstein_outcome>  (317) 
too moved

>  <fragmenstein_mode>  (317) 
expansion

>  <fragmenstein_error>  (317) 


$$$$
C1635-P148
     RDKit          3D

 58 62  0  0  0  0  0  0  0  0999 V2000
   -2.2071   -0.3901   31.8314 C   0  0  0  0  0  0  0  0  0  0  0  0
   -0.7609   -0.8233   31.9020 C   0  0  0  0  0  0  0  0  0  0  0  0
   -0.5224   -2.4742   31.3214 S   0  0  0  0  0  0  0  0  0  0  0  0
   -1.4463   -3.3295   32.0357 O   0  0  0  0  0  0  0  0  0  0  0  0
    0.9725   -2.7214   31.1001 N   0  0  0  0  0  0  0  0  0  0  0  0
    1.7823   -3.4892   32.0241 C   0  0  0  0  0  0  0  0  0  0  0  0
    1.2627   -4.8846   32.2659 C   0  0  0  0  0  0  0  0  0  0  0  0
    1.6446   -5.4265   33.5621 C   0  0  0  0  0  0  0  0  0  0  0  0
    0.9532   -6.4386   34.1164 C   0  0  0  0  0  0  0  0  0  0  0  0
    1.4310   -7.0112   35.2701 N   0  0  0  0  0  0  0  0  0  0  0  0
    2.8191   -6.8321   35.9987 C   0  0  0  0  0  0  0  0  0  0  0  0
    3.6921   -6.1304   35.7618 O   0  0  0  0  0  0  0  0  0  0  0  0
    2.6951   -7.9638   37.0735 N   0  0  0  0  0  0  0  0  0  0  0  0
    3.6235   -8.4642   37.9409 C   0  0  0  0  0  0  0  0  0  0  0  0
    3.5218   -9.4386   38.9504 C   0  0  0  0  0  0  0  0  0  0  0  0
    4.7000   -9.7105   39.5177 N   0  0  0  0  0  0  0  0  0  0  0  0
    5.5454   -8.8779   38.8954 N   0  0  0  0  0  0  0  0  0  0  0  0
    4.9507   -8.1199   37.9334 C   0  0  0  0  0  0  0  0  0  0  0  0
   -0.1152   -6.9506   33.3665 N   0  0  0  0  0  0  0  0  0  0  0  0
   -1.1133   -7.8278   33.6633 C   0  0  0  0  0  0  0  0  0  0  0  0
   -1.7401   -8.1963   32.5677 N   0  0  0  0  0  0  0  0  0  0  0  0
   -1.2186   -7.4753   31.5215 N   0  0  0  0  0  0  0  0  0  0  0  0
   -0.3059   -6.6665   32.0178 C   0  0  0  0  0  0  0  0  0  0  0  0
    0.4298   -5.5872   31.4628 C   0  0  0  0  0  0  0  0  0  0  0  0
   -1.0674   -2.6294   29.7655 N   0  0  0  0  0  0  0  0  0  0  0  0
   -0.2894   -2.2561   28.6120 C   0  0  0  0  0  0  0  0  0  0  0  0
   -0.3979   -0.7971   28.2745 C   0  0  0  0  0  0  0  0  0  0  0  0
    0.6148    0.1251   28.6076 C   0  0  0  0  0  0  0  0  0  0  0  0
    0.4960    1.4726   28.2495 C   0  0  0  0  0  0  0  0  0  0  0  0
   -0.6376    1.8605   27.5668 C   0  0  0  0  0  0  0  0  0  0  0  0
   -1.6261    0.9677   27.2436 C   0  0  0  0  0  0  0  0  0  0  0  0
   -1.5334   -0.3587   27.5845 C   0  0  0  0  0  0  0  0  0  0  0  0
   -2.6413    1.5390   26.5465 O   0  0  0  0  0  0  0  0  0  0  0  0
   -2.2314    2.9185   26.5587 C   0  0  0  0  0  0  0  0  0  0  0  0
   -0.9107    3.1121   27.1135 O   0  0  0  0  0  0  0  0  0  0  0  0
   -2.8829   -1.1388   32.2560 H   0  0  0  0  0  0  0  0  0  0  0  0
   -2.5130   -0.2054   30.7983 H   0  0  0  0  0  0  0  0  0  0  0  0
   -2.3364    0.5273   32.4065 H   0  0  0  0  0  0  0  0  0  0  0  0
   -0.4258   -0.8170   32.9450 H   0  0  0  0  0  0  0  0  0  0  0  0
   -0.1186   -0.1443   31.3382 H   0  0  0  0  0  0  0  0  0  0  0  0
    2.8052   -3.5515   31.6349 H   0  0  0  0  0  0  0  0  0  0  0  0
    1.8354   -2.9305   32.9680 H   0  0  0  0  0  0  0  0  0  0  0  0
    2.5151   -4.9868   34.0415 H   0  0  0  0  0  0  0  0  0  0  0  0
    0.8578   -7.6587   35.7857 H   0  0  0  0  0  0  0  0  0  0  0  0
    1.7619   -8.3337   37.0689 H   0  0  0  0  0  0  0  0  0  0  0  0
    2.6440   -9.9614   39.3079 H   0  0  0  0  0  0  0  0  0  0  0  0
    6.5214   -8.8876   39.1738 H   0  0  0  0  0  0  0  0  0  0  0  0
    5.5208   -7.4204   37.3384 H   0  0  0  0  0  0  0  0  0  0  0  0
   -1.3221   -8.1683   34.6642 H   0  0  0  0  0  0  0  0  0  0  0  0
    0.1412   -5.2313   30.4785 H   0  0  0  0  0  0  0  0  0  0  0  0
   -2.0302   -2.3416   29.6659 H   0  0  0  0  0  0  0  0  0  0  0  0
    0.7597   -2.5678   28.6569 H   0  0  0  0  0  0  0  0  0  0  0  0
   -0.7045   -2.8408   27.8001 H   0  0  0  0  0  0  0  0  0  0  0  0
    1.5024   -0.2154   29.1376 H   0  0  0  0  0  0  0  0  0  0  0  0
    1.2696    2.1914   28.4935 H   0  0  0  0  0  0  0  0  0  0  0  0
   -2.2890   -1.0697   27.2693 H   0  0  0  0  0  0  0  0  0  0  0  0
   -2.9442    3.4939   27.1539 H   0  0  0  0  0  0  0  0  0  0  0  0
   -2.2380    3.2968   25.5306 H   0  0  0  0  0  0  0  0  0  0  0  0
  1  2  1  0
  2  3  1  0
  3  4  2  0
  3  5  2  0
  5  6  1  0
  6  7  1  0
  7  8  1  0
  8  9  2  0
  9 10  1  0
 10 11  1  0
 11 12  2  0
 11 13  1  0
 13 14  1  0
 14 15  1  0
 15 16  2  0
 16 17  1  0
 17 18  1  0
  9 19  1  0
 19 20  1  0
 20 21  2  0
 21 22  1  0
 22 23  2  0
 23 24  1  0
  3 25  1  0
 25 26  1  0
 26 27  1  0
 27 28  2  0
 28 29  1  0
 29 30  2  0
 30 31  1  0
 31 32  2  0
 31 33  1  0
 33 34  1  0
 34 35  1  0
 24  7  2  0
 32 27  1  0
 18 14  2  0
 23 19  1  0
 35 30  1  0
  1 36  1  0
  1 37  1  0
  1 38  1  0
  2 39  1  0
  2 40  1  0
  6 41  1  0
  6 42  1  0
  8 43  1  0
 10 44  1  0
 13 45  1  0
 15 46  1  0
 17 47  1  0
 18 48  1  0
 20 49  1  0
 24 50  1  0
 25 51  1  0
 26 52  1  0
 26 53  1  0
 28 54  1  0
 29 55  1  0
 32 56  1  0
 34 57  1  0
 34 58  1  0
M  END
>  <Energy>  (318) 
-61.835408460257106

>  <compound_id>  (318) 
1635

>  <target_id>  (318) 
1

>  <reference_id>  (318) 
148

>  <inspiration_ids>  (318) 
[13, 148]

>  <energy_score>  (318) 
-61.33327409417505

>  <distance_score>  (318) 
1.0629748134372794

>  <path>  (318) 
/opt/xchem-fragalysis-2/maxwin/BulkDock/SCRATCH/505732/C1635-P148/C1635-P148.minimised.mol

>  <scratch_subdir>  (318) 
/opt/xchem-fragalysis-2/maxwin/BulkDock/SCRATCH/505732/C1635-P148

>  <fragmenstein_runtime>  (318) 
7.785414934158325

>  <fragmenstein_outcome>  (318) 
too moved

>  <fragmenstein_mode>  (318) 
expansion

>  <fragmenstein_error>  (318) 


$$$$
C1638-P13
     RDKit          3D

 58 62  0  0  0  0  0  0  0  0999 V2000
   -2.4514   -0.7143   31.5138 C   0  0  0  0  0  0  0  0  0  0  0  0
   -1.0102   -1.0351   31.7969 C   0  0  0  0  0  0  0  0  0  0  0  0
   -0.5365   -2.6595   31.2817 S   0  0  0  0  0  0  0  0  0  0  0  0
   -1.5865   -3.5732   31.6861 O   0  0  0  0  0  0  0  0  0  0  0  0
    0.9517   -2.7762   31.6413 N   0  0  0  0  0  0  0  0  0  0  0  0
    1.7560   -3.9676   31.3789 C   0  0  0  0  0  0  0  0  0  0  0  0
    1.0430   -5.2224   31.7881 C   0  0  0  0  0  0  0  0  0  0  0  0
    0.6692   -5.3794   33.2004 C   0  0  0  0  0  0  0  0  0  0  0  0
   -0.2295   -6.3231   33.5381 C   0  0  0  0  0  0  0  0  0  0  0  0
   -0.8932   -6.4624   35.1242 S   0  0  0  0  0  0  0  0  0  0  0  0
    0.4189   -7.2984   36.0405 C   0  0  0  0  0  0  0  0  0  0  0  0
    1.3182   -6.3732   36.8161 C   0  0  0  0  0  0  0  0  0  0  0  0
    2.5446   -6.8623   37.2766 C   0  0  0  0  0  0  0  0  0  0  0  0
    3.3793   -5.9981   37.9548 C   0  0  0  0  0  0  0  0  0  0  0  0
    3.0703   -4.7042   38.1945 N   0  0  0  0  0  0  0  0  0  0  0  0
    1.8651   -4.2609   37.8020 C   0  0  0  0  0  0  0  0  0  0  0  0
    0.9604   -5.0555   37.1393 C   0  0  0  0  0  0  0  0  0  0  0  0
   -0.7095   -7.1592   32.5312 N   0  0  0  0  0  0  0  0  0  0  0  0
   -1.6391   -8.1523   32.5506 C   0  0  0  0  0  0  0  0  0  0  0  0
   -1.7293   -8.7225   31.3757 N   0  0  0  0  0  0  0  0  0  0  0  0
   -0.8989   -8.0501   30.5203 N   0  0  0  0  0  0  0  0  0  0  0  0
   -0.2929   -7.1139   31.2145 C   0  0  0  0  0  0  0  0  0  0  0  0
    0.6070   -6.0901   30.8514 C   0  0  0  0  0  0  0  0  0  0  0  0
   -0.5769   -2.8076   29.6252 N   0  0  0  0  0  0  0  0  0  0  0  0
    0.2760   -2.0980   28.7083 C   0  0  0  0  0  0  0  0  0  0  0  0
   -0.1855   -0.7110   28.3532 C   0  0  0  0  0  0  0  0  0  0  0  0
    0.6448    0.3984   28.6347 C   0  0  0  0  0  0  0  0  0  0  0  0
    0.2914    1.6852   28.2212 C   0  0  0  0  0  0  0  0  0  0  0  0
   -0.8889    1.8338   27.5286 C   0  0  0  0  0  0  0  0  0  0  0  0
   -1.7092    0.7669   27.2601 C   0  0  0  0  0  0  0  0  0  0  0  0
   -1.3929   -0.5126   27.6630 C   0  0  0  0  0  0  0  0  0  0  0  0
   -2.8034    1.1278   26.5410 O   0  0  0  0  0  0  0  0  0  0  0  0
   -2.6116    2.5512   26.4358 C   0  0  0  0  0  0  0  0  0  0  0  0
   -1.3674    2.9988   27.0184 O   0  0  0  0  0  0  0  0  0  0  0  0
   -3.1244   -1.5212   31.8176 H   0  0  0  0  0  0  0  0  0  0  0  0
   -2.6111   -0.5147   30.4523 H   0  0  0  0  0  0  0  0  0  0  0  0
   -2.7263    0.1673   32.0888 H   0  0  0  0  0  0  0  0  0  0  0  0
   -0.8459   -1.0065   32.8805 H   0  0  0  0  0  0  0  0  0  0  0  0
   -0.3397   -0.3029   31.3410 H   0  0  0  0  0  0  0  0  0  0  0  0
    2.6998   -3.8857   31.9309 H   0  0  0  0  0  0  0  0  0  0  0  0
    2.0318   -3.9961   30.3183 H   0  0  0  0  0  0  0  0  0  0  0  0
    1.0441   -4.6513   33.9149 H   0  0  0  0  0  0  0  0  0  0  0  0
   -0.0614   -7.9802   36.7510 H   0  0  0  0  0  0  0  0  0  0  0  0
    1.0117   -7.9091   35.3505 H   0  0  0  0  0  0  0  0  0  0  0  0
    2.8525   -7.8876   37.1031 H   0  0  0  0  0  0  0  0  0  0  0  0
    4.3478   -6.3193   38.3263 H   0  0  0  0  0  0  0  0  0  0  0  0
    1.6406   -3.2277   38.0480 H   0  0  0  0  0  0  0  0  0  0  0  0
    0.0027   -4.6211   36.8727 H   0  0  0  0  0  0  0  0  0  0  0  0
   -2.2062   -8.4188   33.4256 H   0  0  0  0  0  0  0  0  0  0  0  0
    0.8272   -5.9471   29.8020 H   0  0  0  0  0  0  0  0  0  0  0  0
   -1.5339   -2.8512   29.2872 H   0  0  0  0  0  0  0  0  0  0  0  0
    0.3363   -2.6831   27.7903 H   0  0  0  0  0  0  0  0  0  0  0  0
    1.3077   -2.0658   29.0755 H   0  0  0  0  0  0  0  0  0  0  0  0
    1.5850    0.2567   29.1647 H   0  0  0  0  0  0  0  0  0  0  0  0
    0.9265    2.5400   28.4240 H   0  0  0  0  0  0  0  0  0  0  0  0
   -2.0401   -1.3412   27.3870 H   0  0  0  0  0  0  0  0  0  0  0  0
   -2.6177    2.8272   25.3753 H   0  0  0  0  0  0  0  0  0  0  0  0
   -3.4400    3.0608   26.9352 H   0  0  0  0  0  0  0  0  0  0  0  0
  1  2  1  0
  2  3  1  0
  3  4  2  0
  3  5  2  0
  5  6  1  0
  6  7  1  0
  7  8  1  0
  8  9  2  0
  9 10  1  0
 10 11  1  0
 11 12  1  0
 12 13  2  0
 13 14  1  0
 14 15  2  0
 15 16  1  0
 16 17  2  0
  9 18  1  0
 18 19  1  0
 19 20  2  0
 20 21  1  0
 21 22  2  0
 22 23  1  0
  3 24  1  0
 24 25  1  0
 25 26  1  0
 26 27  2  0
 27 28  1  0
 28 29  2  0
 29 30  1  0
 30 31  2  0
 30 32  1  0
 32 33  1  0
 33 34  1  0
 23  7  2  0
 31 26  1  0
 17 12  1  0
 22 18  1  0
 34 29  1  0
  1 35  1  0
  1 36  1  0
  1 37  1  0
  2 38  1  0
  2 39  1  0
  6 40  1  0
  6 41  1  0
  8 42  1  0
 11 43  1  0
 11 44  1  0
 13 45  1  0
 14 46  1  0
 16 47  1  0
 17 48  1  0
 19 49  1  0
 23 50  1  0
 24 51  1  0
 25 52  1  0
 25 53  1  0
 27 54  1  0
 28 55  1  0
 31 56  1  0
 33 57  1  0
 33 58  1  0
M  END
>  <Energy>  (319) 
-39.802665477852536

>  <compound_id>  (319) 
1638

>  <target_id>  (319) 
1

>  <reference_id>  (319) 
13

>  <inspiration_ids>  (319) 
[13, 152]

>  <energy_score>  (319) 
-60.14776977063582

>  <distance_score>  (319) 
1.085818218836056

>  <path>  (319) 
/opt/xchem-fragalysis-2/maxwin/BulkDock/SCRATCH/505732/C1638-P13/C1638-P13.minimised.mol

>  <scratch_subdir>  (319) 
/opt/xchem-fragalysis-2/maxwin/BulkDock/SCRATCH/505732/C1638-P13

>  <fragmenstein_runtime>  (319) 
7.38449239730835

>  <fragmenstein_outcome>  (319) 
too moved

>  <fragmenstein_mode>  (319) 
expansion

>  <fragmenstein_error>  (319) 


$$$$
C1638-P152
     RDKit          3D

 58 62  0  0  0  0  0  0  0  0999 V2000
   -2.4174   -0.6144   31.6353 C   0  0  0  0  0  0  0  0  0  0  0  0
   -0.9943   -0.9855   31.9392 C   0  0  0  0  0  0  0  0  0  0  0  0
   -0.5505   -2.5957   31.3555 S   0  0  0  0  0  0  0  0  0  0  0  0
   -1.6325   -3.5066   31.6702 O   0  0  0  0  0  0  0  0  0  0  0  0
    0.9250   -2.7673   31.7404 N   0  0  0  0  0  0  0  0  0  0  0  0
    1.6934   -3.9694   31.4485 C   0  0  0  0  0  0  0  0  0  0  0  0
    0.9479   -5.2057   31.8514 C   0  0  0  0  0  0  0  0  0  0  0  0
    0.6477   -5.4044   33.2771 C   0  0  0  0  0  0  0  0  0  0  0  0
   -0.2340   -6.3567   33.6374 C   0  0  0  0  0  0  0  0  0  0  0  0
   -0.8050   -6.5689   35.2498 S   0  0  0  0  0  0  0  0  0  0  0  0
    0.5993   -7.2757   36.1181 C   0  0  0  0  0  0  0  0  0  0  0  0
    1.4381   -6.2909   36.8818 C   0  0  0  0  0  0  0  0  0  0  0  0
    2.6354   -6.7431   37.4457 C   0  0  0  0  0  0  0  0  0  0  0  0
    3.4241   -5.8332   38.1172 C   0  0  0  0  0  0  0  0  0  0  0  0
    3.0974   -4.5285   38.2554 N   0  0  0  0  0  0  0  0  0  0  0  0
    1.9190   -4.1172   37.7607 C   0  0  0  0  0  0  0  0  0  0  0  0
    1.0618   -4.9558   37.0898 C   0  0  0  0  0  0  0  0  0  0  0  0
   -0.7757   -7.1578   32.6342 N   0  0  0  0  0  0  0  0  0  0  0  0
   -1.6781   -8.1769   32.6805 C   0  0  0  0  0  0  0  0  0  0  0  0
   -1.8012   -8.7207   31.4955 N   0  0  0  0  0  0  0  0  0  0  0  0
   -1.0373   -8.0056   30.6137 N   0  0  0  0  0  0  0  0  0  0  0  0
   -0.4374   -7.0620   31.2973 C   0  0  0  0  0  0  0  0  0  0  0  0
    0.4293   -6.0210   30.9102 C   0  0  0  0  0  0  0  0  0  0  0  0
   -0.5410   -2.6617   29.6933 N   0  0  0  0  0  0  0  0  0  0  0  0
    0.3698   -1.9392   28.8469 C   0  0  0  0  0  0  0  0  0  0  0  0
   -0.0929   -0.5666   28.4479 C   0  0  0  0  0  0  0  0  0  0  0  0
    0.6452    0.5703   28.8456 C   0  0  0  0  0  0  0  0  0  0  0  0
    0.2838    1.8500   28.4158 C   0  0  0  0  0  0  0  0  0  0  0  0
   -0.8118    1.9645   27.5911 C   0  0  0  0  0  0  0  0  0  0  0  0
   -1.5387    0.8684   27.2026 C   0  0  0  0  0  0  0  0  0  0  0  0
   -1.2114   -0.4058   27.6159 C   0  0  0  0  0  0  0  0  0  0  0  0
   -2.5578    1.1988   26.3661 O   0  0  0  0  0  0  0  0  0  0  0  0
   -2.4421    2.6333   26.3417 C   0  0  0  0  0  0  0  0  0  0  0  0
   -1.2860    3.1195   27.0543 O   0  0  0  0  0  0  0  0  0  0  0  0
   -3.1131   -1.4160   31.8983 H   0  0  0  0  0  0  0  0  0  0  0  0
   -2.5391   -0.3773   30.5766 H   0  0  0  0  0  0  0  0  0  0  0  0
   -2.6926    0.2550   32.2302 H   0  0  0  0  0  0  0  0  0  0  0  0
   -0.8568   -1.0127   33.0264 H   0  0  0  0  0  0  0  0  0  0  0  0
   -0.2937   -0.2518   31.5334 H   0  0  0  0  0  0  0  0  0  0  0  0
    2.6470   -3.9227   31.9876 H   0  0  0  0  0  0  0  0  0  0  0  0
    1.9545   -3.9928   30.3840 H   0  0  0  0  0  0  0  0  0  0  0  0
    1.0647   -4.6984   33.9907 H   0  0  0  0  0  0  0  0  0  0  0  0
    0.1976   -7.9999   36.8353 H   0  0  0  0  0  0  0  0  0  0  0  0
    1.2273   -7.8276   35.4099 H   0  0  0  0  0  0  0  0  0  0  0  0
    2.9532   -7.7769   37.3638 H   0  0  0  0  0  0  0  0  0  0  0  0
    4.3668   -6.1250   38.5706 H   0  0  0  0  0  0  0  0  0  0  0  0
    1.6771   -3.0722   37.9277 H   0  0  0  0  0  0  0  0  0  0  0  0
    0.1246   -4.5406   36.7343 H   0  0  0  0  0  0  0  0  0  0  0  0
   -2.1945   -8.4897   33.5746 H   0  0  0  0  0  0  0  0  0  0  0  0
    0.5783   -5.8444   29.8517 H   0  0  0  0  0  0  0  0  0  0  0  0
   -1.4858   -2.6599   29.3227 H   0  0  0  0  0  0  0  0  0  0  0  0
    0.5120   -2.5275   27.9437 H   0  0  0  0  0  0  0  0  0  0  0  0
    1.3706   -1.8812   29.2889 H   0  0  0  0  0  0  0  0  0  0  0  0
    1.5176    0.4599   29.4876 H   0  0  0  0  0  0  0  0  0  0  0  0
    0.8452    2.7277   28.7164 H   0  0  0  0  0  0  0  0  0  0  0  0
   -1.7808   -1.2582   27.2540 H   0  0  0  0  0  0  0  0  0  0  0  0
   -2.3687    2.9583   25.2977 H   0  0  0  0  0  0  0  0  0  0  0  0
   -3.3438    3.0703   26.7800 H   0  0  0  0  0  0  0  0  0  0  0  0
  1  2  1  0
  2  3  1  0
  3  4  2  0
  3  5  2  0
  5  6  1  0
  6  7  1  0
  7  8  1  0
  8  9  2  0
  9 10  1  0
 10 11  1  0
 11 12  1  0
 12 13  2  0
 13 14  1  0
 14 15  2  0
 15 16  1  0
 16 17  2  0
  9 18  1  0
 18 19  1  0
 19 20  2  0
 20 21  1  0
 21 22  2  0
 22 23  1  0
  3 24  1  0
 24 25  1  0
 25 26  1  0
 26 27  2  0
 27 28  1  0
 28 29  2  0
 29 30  1  0
 30 31  2  0
 30 32  1  0
 32 33  1  0
 33 34  1  0
 23  7  2  0
 31 26  1  0
 17 12  1  0
 22 18  1  0
 34 29  1  0
  1 35  1  0
  1 36  1  0
  1 37  1  0
  2 38  1  0
  2 39  1  0
  6 40  1  0
  6 41  1  0
  8 42  1  0
 11 43  1  0
 11 44  1  0
 13 45  1  0
 14 46  1  0
 16 47  1  0
 17 48  1  0
 19 49  1  0
 23 50  1  0
 24 51  1  0
 25 52  1  0
 25 53  1  0
 27 54  1  0
 28 55  1  0
 31 56  1  0
 33 57  1  0
 33 58  1  0
M  END
>  <Energy>  (320) 
-39.68387165680339

>  <compound_id>  (320) 
1638

>  <target_id>  (320) 
1

>  <reference_id>  (320) 
152

>  <inspiration_ids>  (320) 
[13, 152]

>  <energy_score>  (320) 
-60.028975949585536

>  <distance_score>  (320) 
1.1014435142378536

>  <path>  (320) 
/opt/xchem-fragalysis-2/maxwin/BulkDock/SCRATCH/505732/C1638-P152/C1638-P152.minimised.mol

>  <scratch_subdir>  (320) 
/opt/xchem-fragalysis-2/maxwin/BulkDock/SCRATCH/505732/C1638-P152

>  <fragmenstein_runtime>  (320) 
7.303624153137207

>  <fragmenstein_outcome>  (320) 
too moved

>  <fragmenstein_mode>  (320) 
expansion

>  <fragmenstein_error>  (320) 


$$$$
C1638-P13
     RDKit          3D

 58 62  0  0  0  0  0  0  0  0999 V2000
   -2.4226   -0.7201   31.5383 C   0  0  0  0  0  0  0  0  0  0  0  0
   -0.9868   -1.0682   31.8235 C   0  0  0  0  0  0  0  0  0  0  0  0
   -0.5327   -2.6883   31.2735 S   0  0  0  0  0  0  0  0  0  0  0  0
   -1.5845   -3.6021   31.6718 O   0  0  0  0  0  0  0  0  0  0  0  0
    0.9590   -2.8345   31.6161 N   0  0  0  0  0  0  0  0  0  0  0  0
    1.7635   -3.9868   31.2048 C   0  0  0  0  0  0  0  0  0  0  0  0
    1.1036   -5.2682   31.6114 C   0  0  0  0  0  0  0  0  0  0  0  0
    0.8415   -5.4677   33.0354 C   0  0  0  0  0  0  0  0  0  0  0  0
   -0.0281   -6.4187   33.4186 C   0  0  0  0  0  0  0  0  0  0  0  0
   -0.5128   -6.6627   35.0503 S   0  0  0  0  0  0  0  0  0  0  0  0
    1.0621   -6.6962   35.9489 C   0  0  0  0  0  0  0  0  0  0  0  0
    0.9215   -5.7725   37.1204 C   0  0  0  0  0  0  0  0  0  0  0  0
    0.7030   -6.2803   38.4011 C   0  0  0  0  0  0  0  0  0  0  0  0
    0.3349   -5.3893   39.3875 C   0  0  0  0  0  0  0  0  0  0  0  0
    0.1822   -4.0612   39.1765 N   0  0  0  0  0  0  0  0  0  0  0  0
    0.4361   -3.5869   37.9463 C   0  0  0  0  0  0  0  0  0  0  0  0
    0.8295   -4.3904   36.9033 C   0  0  0  0  0  0  0  0  0  0  0  0
   -0.6053   -7.2097   32.4288 N   0  0  0  0  0  0  0  0  0  0  0  0
   -1.5700   -8.1665   32.4900 C   0  0  0  0  0  0  0  0  0  0  0  0
   -1.7259   -8.7318   31.3205 N   0  0  0  0  0  0  0  0  0  0  0  0
   -0.9280   -8.0689   30.4249 N   0  0  0  0  0  0  0  0  0  0  0  0
   -0.2724   -7.1450   31.0895 C   0  0  0  0  0  0  0  0  0  0  0  0
    0.6076   -6.1158   30.6891 C   0  0  0  0  0  0  0  0  0  0  0  0
   -0.5950   -2.7952   29.6145 N   0  0  0  0  0  0  0  0  0  0  0  0
    0.2506   -2.0746   28.6996 C   0  0  0  0  0  0  0  0  0  0  0  0
   -0.2158   -0.6884   28.3521 C   0  0  0  0  0  0  0  0  0  0  0  0
    0.6089    0.4227   28.6440 C   0  0  0  0  0  0  0  0  0  0  0  0
    0.2555    1.7092   28.2304 C   0  0  0  0  0  0  0  0  0  0  0  0
   -0.9192    1.8553   27.5281 C   0  0  0  0  0  0  0  0  0  0  0  0
   -1.7343    0.7866   27.2505 C   0  0  0  0  0  0  0  0  0  0  0  0
   -1.4180   -0.4928   27.6531 C   0  0  0  0  0  0  0  0  0  0  0  0
   -2.8229    1.1459   26.5223 O   0  0  0  0  0  0  0  0  0  0  0  0
   -2.6366    2.5707   26.4262 C   0  0  0  0  0  0  0  0  0  0  0  0
   -1.3964    3.0199   27.0159 O   0  0  0  0  0  0  0  0  0  0  0  0
   -3.1090   -1.5142   31.8465 H   0  0  0  0  0  0  0  0  0  0  0  0
   -2.5804   -0.5245   30.4756 H   0  0  0  0  0  0  0  0  0  0  0  0
   -2.6822    0.1711   32.1069 H   0  0  0  0  0  0  0  0  0  0  0  0
   -0.8264   -1.0638   32.9079 H   0  0  0  0  0  0  0  0  0  0  0  0
   -0.3042   -0.3375   31.3830 H   0  0  0  0  0  0  0  0  0  0  0  0
    2.7490   -3.9154   31.6805 H   0  0  0  0  0  0  0  0  0  0  0  0
    1.9502   -3.9572   30.1261 H   0  0  0  0  0  0  0  0  0  0  0  0
    1.2895   -4.7639   33.7284 H   0  0  0  0  0  0  0  0  0  0  0  0
    1.2557   -7.7239   36.2753 H   0  0  0  0  0  0  0  0  0  0  0  0
    1.9200   -6.3940   35.3402 H   0  0  0  0  0  0  0  0  0  0  0  0
    0.7473   -7.3421   38.6158 H   0  0  0  0  0  0  0  0  0  0  0  0
    0.1187   -5.7230   40.3984 H   0  0  0  0  0  0  0  0  0  0  0  0
    0.3028   -2.5172   37.8200 H   0  0  0  0  0  0  0  0  0  0  0  0
    0.9759   -3.9514   35.9230 H   0  0  0  0  0  0  0  0  0  0  0  0
   -2.1109   -8.4105   33.3883 H   0  0  0  0  0  0  0  0  0  0  0  0
    0.7534   -5.9328   29.6356 H   0  0  0  0  0  0  0  0  0  0  0  0
   -1.5550   -2.8393   29.2844 H   0  0  0  0  0  0  0  0  0  0  0  0
    0.3133   -2.6549   27.7790 H   0  0  0  0  0  0  0  0  0  0  0  0
    1.2829   -2.0344   29.0632 H   0  0  0  0  0  0  0  0  0  0  0  0
    1.5460    0.2826   29.1795 H   0  0  0  0  0  0  0  0  0  0  0  0
    0.8862    2.5655   28.4398 H   0  0  0  0  0  0  0  0  0  0  0  0
   -2.0596   -1.3231   27.3691 H   0  0  0  0  0  0  0  0  0  0  0  0
   -2.6401    2.8530   25.3674 H   0  0  0  0  0  0  0  0  0  0  0  0
   -3.4689    3.0734   26.9257 H   0  0  0  0  0  0  0  0  0  0  0  0
  1  2  1  0
  2  3  1  0
  3  4  2  0
  3  5  2  0
  5  6  1  0
  6  7  1  0
  7  8  1  0
  8  9  2  0
  9 10  1  0
 10 11  1  0
 11 12  1  0
 12 13  2  0
 13 14  1  0
 14 15  2  0
 15 16  1  0
 16 17  2  0
  9 18  1  0
 18 19  1  0
 19 20  2  0
 20 21  1  0
 21 22  2  0
 22 23  1  0
  3 24  1  0
 24 25  1  0
 25 26  1  0
 26 27  2  0
 27 28  1  0
 28 29  2  0
 29 30  1  0
 30 31  2  0
 30 32  1  0
 32 33  1  0
 33 34  1  0
 23  7  2  0
 31 26  1  0
 17 12  1  0
 22 18  1  0
 34 29  1  0
  1 35  1  0
  1 36  1  0
  1 37  1  0
  2 38  1  0
  2 39  1  0
  6 40  1  0
  6 41  1  0
  8 42  1  0
 11 43  1  0
 11 44  1  0
 13 45  1  0
 14 46  1  0
 16 47  1  0
 17 48  1  0
 19 49  1  0
 23 50  1  0
 24 51  1  0
 25 52  1  0
 25 53  1  0
 27 54  1  0
 28 55  1  0
 31 56  1  0
 33 57  1  0
 33 58  1  0
M  END
>  <Energy>  (321) 
-38.231269089322339

>  <compound_id>  (321) 
1638

>  <target_id>  (321) 
1

>  <reference_id>  (321) 
13

>  <inspiration_ids>  (321) 
[13, 153]

>  <energy_score>  (321) 
-58.57637338210486

>  <distance_score>  (321) 
1.0938124131079587

>  <path>  (321) 
/opt/xchem-fragalysis-2/maxwin/BulkDock/SCRATCH/505732/C1638-P13/C1638-P13.minimised.mol

>  <scratch_subdir>  (321) 
/opt/xchem-fragalysis-2/maxwin/BulkDock/SCRATCH/505732/C1638-P13

>  <fragmenstein_runtime>  (321) 
6.2601213455200195

>  <fragmenstein_outcome>  (321) 
too moved

>  <fragmenstein_mode>  (321) 
expansion

>  <fragmenstein_error>  (321) 


$$$$
C1638-P153
     RDKit          3D

 58 62  0  0  0  0  0  0  0  0999 V2000
   -2.2926   -0.4160   31.5474 C   0  0  0  0  0  0  0  0  0  0  0  0
   -0.9236   -0.9134   31.9240 C   0  0  0  0  0  0  0  0  0  0  0  0
   -0.5606   -2.5444   31.3313 S   0  0  0  0  0  0  0  0  0  0  0  0
   -1.6604   -3.4151   31.6930 O   0  0  0  0  0  0  0  0  0  0  0  0
    0.9192   -2.7784   31.6729 N   0  0  0  0  0  0  0  0  0  0  0  0
    1.6644   -3.9509   31.2249 C   0  0  0  0  0  0  0  0  0  0  0  0
    0.9648   -5.2113   31.6242 C   0  0  0  0  0  0  0  0  0  0  0  0
    0.7366   -5.4258   33.0530 C   0  0  0  0  0  0  0  0  0  0  0  0
   -0.0978   -6.4014   33.4521 C   0  0  0  0  0  0  0  0  0  0  0  0
   -0.5522   -6.6473   35.0888 S   0  0  0  0  0  0  0  0  0  0  0  0
    1.0381   -6.7301   35.9526 C   0  0  0  0  0  0  0  0  0  0  0  0
    0.9379   -5.8229   37.1402 C   0  0  0  0  0  0  0  0  0  0  0  0
    0.6653   -6.3473   38.4039 C   0  0  0  0  0  0  0  0  0  0  0  0
    0.3247   -5.4601   39.4030 C   0  0  0  0  0  0  0  0  0  0  0  0
    0.2494   -4.1210   39.2206 N   0  0  0  0  0  0  0  0  0  0  0  0
    0.5475   -3.6347   38.0049 C   0  0  0  0  0  0  0  0  0  0  0  0
    0.9194   -4.4342   36.9508 C   0  0  0  0  0  0  0  0  0  0  0  0
   -0.6725   -7.2087   32.4763 N   0  0  0  0  0  0  0  0  0  0  0  0
   -1.5524   -8.2441   32.5645 C   0  0  0  0  0  0  0  0  0  0  0  0
   -1.7415   -8.7708   31.3809 N   0  0  0  0  0  0  0  0  0  0  0  0
   -1.0336   -8.0358   30.4661 N   0  0  0  0  0  0  0  0  0  0  0  0
   -0.4045   -7.0945   31.1250 C   0  0  0  0  0  0  0  0  0  0  0  0
    0.4247   -6.0339   30.7042 C   0  0  0  0  0  0  0  0  0  0  0  0
   -0.6112   -2.6059   29.6694 N   0  0  0  0  0  0  0  0  0  0  0  0
    0.3039   -1.9425   28.7806 C   0  0  0  0  0  0  0  0  0  0  0  0
   -0.1011   -0.5587   28.3608 C   0  0  0  0  0  0  0  0  0  0  0  0
    0.6811    0.5535   28.7437 C   0  0  0  0  0  0  0  0  0  0  0  0
    0.4002    1.8322   28.2550 C   0  0  0  0  0  0  0  0  0  0  0  0
   -0.6560    1.9697   27.3832 C   0  0  0  0  0  0  0  0  0  0  0  0
   -1.4244    0.8982   27.0103 C   0  0  0  0  0  0  0  0  0  0  0  0
   -1.1912   -0.3700   27.4989 C   0  0  0  0  0  0  0  0  0  0  0  0
   -2.3790    1.2392   26.1026 O   0  0  0  0  0  0  0  0  0  0  0  0
   -2.1559    2.6585   25.9846 C   0  0  0  0  0  0  0  0  0  0  0  0
   -1.0458    3.1233   26.7815 O   0  0  0  0  0  0  0  0  0  0  0  0
   -3.0717   -1.1474   31.7806 H   0  0  0  0  0  0  0  0  0  0  0  0
   -2.3383   -0.1851   30.4814 H   0  0  0  0  0  0  0  0  0  0  0  0
   -2.5121    0.4964   32.1060 H   0  0  0  0  0  0  0  0  0  0  0  0
   -0.8450   -0.9652   33.0159 H   0  0  0  0  0  0  0  0  0  0  0  0
   -0.1483   -0.2314   31.5638 H   0  0  0  0  0  0  0  0  0  0  0  0
    2.6617   -3.9281   31.6808 H   0  0  0  0  0  0  0  0  0  0  0  0
    1.8335   -3.9149   30.1437 H   0  0  0  0  0  0  0  0  0  0  0  0
    1.1734   -4.7111   33.7430 H   0  0  0  0  0  0  0  0  0  0  0  0
    1.2221   -7.7654   36.2583 H   0  0  0  0  0  0  0  0  0  0  0  0
    1.8859   -6.4314   35.3277 H   0  0  0  0  0  0  0  0  0  0  0  0
    0.6374   -7.4163   38.5891 H   0  0  0  0  0  0  0  0  0  0  0  0
    0.0641   -5.8052   40.3992 H   0  0  0  0  0  0  0  0  0  0  0  0
    0.4683   -2.5573   37.9001 H   0  0  0  0  0  0  0  0  0  0  0  0
    1.1035   -3.9836   35.9828 H   0  0  0  0  0  0  0  0  0  0  0  0
   -2.0025   -8.5802   33.4868 H   0  0  0  0  0  0  0  0  0  0  0  0
    0.5240   -5.8434   29.6442 H   0  0  0  0  0  0  0  0  0  0  0  0
   -1.5650   -2.5895   29.3224 H   0  0  0  0  0  0  0  0  0  0  0  0
    0.4000   -2.5574   27.8857 H   0  0  0  0  0  0  0  0  0  0  0  0
    1.3182   -1.9122   29.1926 H   0  0  0  0  0  0  0  0  0  0  0  0
    1.5345    0.4209   29.4062 H   0  0  0  0  0  0  0  0  0  0  0  0
    1.0022    2.6901   28.5328 H   0  0  0  0  0  0  0  0  0  0  0  0
   -1.8002   -1.2018   27.1551 H   0  0  0  0  0  0  0  0  0  0  0  0
   -1.9430    2.8858   24.9334 H   0  0  0  0  0  0  0  0  0  0  0  0
   -3.0646    3.1934   26.2714 H   0  0  0  0  0  0  0  0  0  0  0  0
  1  2  1  0
  2  3  1  0
  3  4  2  0
  3  5  2  0
  5  6  1  0
  6  7  1  0
  7  8  1  0
  8  9  2  0
  9 10  1  0
 10 11  1  0
 11 12  1  0
 12 13  2  0
 13 14  1  0
 14 15  2  0
 15 16  1  0
 16 17  2  0
  9 18  1  0
 18 19  1  0
 19 20  2  0
 20 21  1  0
 21 22  2  0
 22 23  1  0
  3 24  1  0
 24 25  1  0
 25 26  1  0
 26 27  2  0
 27 28  1  0
 28 29  2  0
 29 30  1  0
 30 31  2  0
 30 32  1  0
 32 33  1  0
 33 34  1  0
 23  7  2  0
 31 26  1  0
 17 12  1  0
 22 18  1  0
 34 29  1  0
  1 35  1  0
  1 36  1  0
  1 37  1  0
  2 38  1  0
  2 39  1  0
  6 40  1  0
  6 41  1  0
  8 42  1  0
 11 43  1  0
 11 44  1  0
 13 45  1  0
 14 46  1  0
 16 47  1  0
 17 48  1  0
 19 49  1  0
 23 50  1  0
 24 51  1  0
 25 52  1  0
 25 53  1  0
 27 54  1  0
 28 55  1  0
 31 56  1  0
 33 57  1  0
 33 58  1  0
M  END
>  <Energy>  (322) 
-38.942832045231427

>  <compound_id>  (322) 
1638

>  <target_id>  (322) 
1

>  <reference_id>  (322) 
153

>  <inspiration_ids>  (322) 
[13, 153]

>  <energy_score>  (322) 
-59.28793633801271

>  <distance_score>  (322) 
1.1303479740666804

>  <path>  (322) 
/opt/xchem-fragalysis-2/maxwin/BulkDock/SCRATCH/505732/C1638-P153/C1638-P153.minimised.mol

>  <scratch_subdir>  (322) 
/opt/xchem-fragalysis-2/maxwin/BulkDock/SCRATCH/505732/C1638-P153

>  <fragmenstein_runtime>  (322) 
7.260958194732666

>  <fragmenstein_outcome>  (322) 
too moved

>  <fragmenstein_mode>  (322) 
expansion

>  <fragmenstein_error>  (322) 


$$$$
C1641-P13
     RDKit          3D

 69 73  0  0  0  0  0  0  0  0999 V2000
   -2.8092   -1.4640   32.0059 C   0  0  0  0  0  0  0  0  0  0  0  0
   -1.5684   -0.6858   31.6577 C   0  0  0  0  0  0  0  0  0  0  0  0
   -0.1779   -1.7208   31.2678 S   0  0  0  0  0  0  0  0  0  0  0  0
   -0.1504   -2.8093   32.2185 O   0  0  0  0  0  0  0  0  0  0  0  0
    1.0466   -0.8488   30.9525 N   0  0  0  0  0  0  0  0  0  0  0  0
    1.2422    0.5366   31.4412 C   0  0  0  0  0  0  0  0  0  0  0  0
    2.3666    0.5869   32.4699 C   0  0  0  0  0  0  0  0  0  0  0  0
    2.0360   -0.3309   33.6487 C   0  0  0  0  0  0  0  0  0  0  0  0
    3.0692   -0.1922   34.6992 N   0  0  0  0  0  0  0  0  0  0  0  0
    3.1154   -1.4406   35.8403 S   0  0  0  0  0  0  0  0  0  0  0  0
    4.3162   -1.2429   36.6182 O   0  0  0  0  0  0  0  0  0  0  0  0
    1.8145   -1.5009   36.4650 O   0  0  0  0  0  0  0  0  0  0  0  0
    3.3267   -2.7635   34.8627 N   0  0  0  0  0  0  0  0  0  0  0  0
    2.1829   -3.6317   34.5059 C   0  0  0  0  0  0  0  0  0  0  0  0
    2.4984   -4.5335   33.2962 C   0  0  0  0  0  0  0  0  0  0  0  0
    3.0873   -3.8403   32.1415 N   0  0  0  0  0  0  0  0  0  0  0  0
    4.2259   -2.9935   32.5401 C   0  0  0  0  0  0  0  0  0  0  0  0
    4.5439   -2.9014   34.0460 C   0  0  0  0  0  0  0  0  0  0  0  0
    3.1272    1.1859   35.3011 C   0  0  0  0  0  0  0  0  0  0  0  0
    2.3351    2.1767   34.4420 C   0  0  0  0  0  0  0  0  0  0  0  0
    2.5851    3.6066   34.6052 N   0  0  0  0  0  0  0  0  0  0  0  0
    2.0492    4.1712   33.3903 N   0  0  0  0  0  0  0  0  0  0  0  0
    2.0801    3.1592   32.3521 N   0  0  0  0  0  0  0  0  0  0  0  0
    2.7151    1.9944   32.9807 C   0  0  0  0  0  0  0  0  0  0  0  0
   -0.5215   -2.5157   29.8297 N   0  0  0  0  0  0  0  0  0  0  0  0
    0.1018   -2.1837   28.5656 C   0  0  0  0  0  0  0  0  0  0  0  0
   -0.2449   -0.8012   28.0637 C   0  0  0  0  0  0  0  0  0  0  0  0
    0.7574    0.1968   28.0133 C   0  0  0  0  0  0  0  0  0  0  0  0
    0.4728    1.4951   27.5877 C   0  0  0  0  0  0  0  0  0  0  0  0
   -0.8130    1.7591   27.1808 C   0  0  0  0  0  0  0  0  0  0  0  0
   -1.7893    0.7927   27.1933 C   0  0  0  0  0  0  0  0  0  0  0  0
   -1.5441   -0.4907   27.6362 C   0  0  0  0  0  0  0  0  0  0  0  0
   -2.9683    1.2538   26.7004 O   0  0  0  0  0  0  0  0  0  0  0  0
   -2.6439    2.6314   26.4349 C   0  0  0  0  0  0  0  0  0  0  0  0
   -1.2584    2.9462   26.6925 O   0  0  0  0  0  0  0  0  0  0  0  0
   -3.6471   -0.7865   32.1897 H   0  0  0  0  0  0  0  0  0  0  0  0
   -2.6579   -2.0521   32.9173 H   0  0  0  0  0  0  0  0  0  0  0  0
   -3.0874   -2.1639   31.2160 H   0  0  0  0  0  0  0  0  0  0  0  0
   -1.7461   -0.0225   30.8072 H   0  0  0  0  0  0  0  0  0  0  0  0
   -1.3001   -0.0853   32.5314 H   0  0  0  0  0  0  0  0  0  0  0  0
    0.3308    0.9880   31.8349 H   0  0  0  0  0  0  0  0  0  0  0  0
    1.5337    1.1460   30.5789 H   0  0  0  0  0  0  0  0  0  0  0  0
    3.2725    0.2024   31.9790 H   0  0  0  0  0  0  0  0  0  0  0  0
    1.0393   -0.1344   34.0619 H   0  0  0  0  0  0  0  0  0  0  0  0
    2.0287   -1.3463   33.2693 H   0  0  0  0  0  0  0  0  0  0  0  0
    1.2920   -3.0343   34.3031 H   0  0  0  0  0  0  0  0  0  0  0  0
    1.9544   -4.2697   35.3675 H   0  0  0  0  0  0  0  0  0  0  0  0
    3.1902   -5.3266   33.6082 H   0  0  0  0  0  0  0  0  0  0  0  0
    1.5834   -5.0449   32.9766 H   0  0  0  0  0  0  0  0  0  0  0  0
    2.3622   -3.2307   31.7446 H   0  0  0  0  0  0  0  0  0  0  0  0
    4.0498   -1.9853   32.1521 H   0  0  0  0  0  0  0  0  0  0  0  0
    5.1189   -3.3569   32.0185 H   0  0  0  0  0  0  0  0  0  0  0  0
    5.0638   -3.8111   34.3710 H   0  0  0  0  0  0  0  0  0  0  0  0
    5.2371   -2.0705   34.2157 H   0  0  0  0  0  0  0  0  0  0  0  0
    2.7256    1.1933   36.3205 H   0  0  0  0  0  0  0  0  0  0  0  0
    4.1830    1.4776   35.3530 H   0  0  0  0  0  0  0  0  0  0  0  0
    1.2592    1.9992   34.5956 H   0  0  0  0  0  0  0  0  0  0  0  0
    2.0799    3.9579   35.4222 H   0  0  0  0  0  0  0  0  0  0  0  0
    2.5474    5.0320   33.1224 H   0  0  0  0  0  0  0  0  0  0  0  0
    2.6434    3.4675   31.5543 H   0  0  0  0  0  0  0  0  0  0  0  0
    3.8058    2.1173   32.8767 H   0  0  0  0  0  0  0  0  0  0  0  0
   -1.5199   -2.5853   29.6897 H   0  0  0  0  0  0  0  0  0  0  0  0
   -0.2342   -2.9212   27.8345 H   0  0  0  0  0  0  0  0  0  0  0  0
    1.1884   -2.3174   28.6277 H   0  0  0  0  0  0  0  0  0  0  0  0
    1.7725   -0.0475   28.3229 H   0  0  0  0  0  0  0  0  0  0  0  0
    1.2392    2.2598   27.5540 H   0  0  0  0  0  0  0  0  0  0  0  0
   -2.3241   -1.2444   27.5981 H   0  0  0  0  0  0  0  0  0  0  0  0
   -2.8608    2.8470   25.3827 H   0  0  0  0  0  0  0  0  0  0  0  0
   -3.2684    3.2738   27.0616 H   0  0  0  0  0  0  0  0  0  0  0  0
  1  2  1  0
  2  3  1  0
  3  4  2  0
  3  5  2  0
  5  6  1  0
  6  7  1  0
  7  8  1  0
  8  9  1  0
  9 10  1  0
 10 11  2  0
 10 12  2  0
 10 13  1  0
 13 14  1  0
 14 15  1  0
 15 16  1  0
 16 17  1  0
 17 18  1  0
  9 19  1  0
 19 20  1  0
 20 21  1  0
 21 22  1  0
 22 23  1  0
 23 24  1  0
  3 25  1  0
 25 26  1  0
 26 27  1  0
 27 28  2  0
 28 29  1  0
 29 30  2  0
 30 31  1  0
 31 32  2  0
 31 33  1  0
 33 34  1  0
 34 35  1  0
 24  7  1  0
 32 27  1  0
 18 13  1  0
 24 20  1  0
 35 30  1  0
  1 36  1  0
  1 37  1  0
  1 38  1  0
  2 39  1  0
  2 40  1  0
  6 41  1  0
  6 42  1  0
  7 43  1  0
  8 44  1  0
  8 45  1  0
 14 46  1  0
 14 47  1  0
 15 48  1  0
 15 49  1  0
 16 50  1  0
 17 51  1  0
 17 52  1  0
 18 53  1  0
 18 54  1  0
 19 55  1  0
 19 56  1  0
 20 57  1  0
 21 58  1  0
 22 59  1  0
 23 60  1  0
 24 61  1  0
 25 62  1  0
 26 63  1  0
 26 64  1  0
 28 65  1  0
 29 66  1  0
 32 67  1  0
 34 68  1  0
 34 69  1  0
M  END
>  <Energy>  (323) 
-132.18498891045698

>  <compound_id>  (323) 
1641

>  <target_id>  (323) 
1

>  <reference_id>  (323) 
13

>  <inspiration_ids>  (323) 
[13, 156]

>  <energy_score>  (323) 
-129.45969724656004

>  <distance_score>  (323) 
1.0624242602431135

>  <path>  (323) 
/opt/xchem-fragalysis-2/maxwin/BulkDock/SCRATCH/505732/C1641-P13/C1641-P13.minimised.mol

>  <scratch_subdir>  (323) 
/opt/xchem-fragalysis-2/maxwin/BulkDock/SCRATCH/505732/C1641-P13

>  <fragmenstein_runtime>  (323) 
5.479444742202759

>  <fragmenstein_outcome>  (323) 
too moved

>  <fragmenstein_mode>  (323) 
expansion

>  <fragmenstein_error>  (323) 


$$$$
C1641-P156
     RDKit          3D

 69 73  0  0  0  0  0  0  0  0999 V2000
   -1.9316   -0.7067   31.7799 C   0  0  0  0  0  0  0  0  0  0  0  0
   -0.6651   -1.5276   31.9460 C   0  0  0  0  0  0  0  0  0  0  0  0
   -0.6952   -3.0612   31.0248 S   0  0  0  0  0  0  0  0  0  0  0  0
   -1.9198   -3.7426   31.3540 O   0  0  0  0  0  0  0  0  0  0  0  0
    0.6814   -3.7154   31.1288 N   0  0  0  0  0  0  0  0  0  0  0  0
    1.4124   -4.4449   30.0664 C   0  0  0  0  0  0  0  0  0  0  0  0
    2.9064   -4.1549   30.2909 C   0  0  0  0  0  0  0  0  0  0  0  0
    3.1461   -2.6495   30.4618 C   0  0  0  0  0  0  0  0  0  0  0  0
    4.5689   -2.4273   30.7775 N   0  0  0  0  0  0  0  0  0  0  0  0
    4.8553   -1.0100   31.6526 S   0  0  0  0  0  0  0  0  0  0  0  0
    6.2799   -0.7720   31.6268 O   0  0  0  0  0  0  0  0  0  0  0  0
    3.9165   -0.0104   31.1971 O   0  0  0  0  0  0  0  0  0  0  0  0
    4.4378   -1.4961   33.1987 N   0  0  0  0  0  0  0  0  0  0  0  0
    3.0422   -1.5678   33.6988 C   0  0  0  0  0  0  0  0  0  0  0  0
    2.5360   -3.0158   33.8824 C   0  0  0  0  0  0  0  0  0  0  0  0
    3.4814   -3.9407   34.5174 N   0  0  0  0  0  0  0  0  0  0  0  0
    4.7969   -3.8494   33.8737 C   0  0  0  0  0  0  0  0  0  0  0  0
    5.3472   -2.4212   33.9001 C   0  0  0  0  0  0  0  0  0  0  0  0
    5.4442   -2.6964   29.5822 C   0  0  0  0  0  0  0  0  0  0  0  0
    4.6809   -3.5630   28.5522 C   0  0  0  0  0  0  0  0  0  0  0  0
    5.4300   -4.3413   27.5677 N   0  0  0  0  0  0  0  0  0  0  0  0
    4.4534   -5.3029   27.0987 N   0  0  0  0  0  0  0  0  0  0  0  0
    3.4491   -5.4978   28.1317 N   0  0  0  0  0  0  0  0  0  0  0  0
    3.9165   -4.6846   29.2575 C   0  0  0  0  0  0  0  0  0  0  0  0
   -0.8467   -2.6635   29.4213 N   0  0  0  0  0  0  0  0  0  0  0  0
    0.0954   -1.8154   28.7426 C   0  0  0  0  0  0  0  0  0  0  0  0
   -0.3476   -0.4348   28.3850 C   0  0  0  0  0  0  0  0  0  0  0  0
    0.4490    0.6734   28.7640 C   0  0  0  0  0  0  0  0  0  0  0  0
    0.1442    1.9609   28.3239 C   0  0  0  0  0  0  0  0  0  0  0  0
   -0.9530    2.1090   27.5100 C   0  0  0  0  0  0  0  0  0  0  0  0
   -1.7293    1.0399   27.1400 C   0  0  0  0  0  0  0  0  0  0  0  0
   -1.4551   -0.2409   27.5584 C   0  0  0  0  0  0  0  0  0  0  0  0
   -2.7394    1.3995   26.3082 O   0  0  0  0  0  0  0  0  0  0  0  0
   -2.5785    2.8290   26.2889 C   0  0  0  0  0  0  0  0  0  0  0  0
   -1.3816    3.2739   26.9597 O   0  0  0  0  0  0  0  0  0  0  0  0
   -1.8626    0.2118   32.3702 H   0  0  0  0  0  0  0  0  0  0  0  0
   -2.8084   -1.2638   32.1245 H   0  0  0  0  0  0  0  0  0  0  0  0
   -2.1027   -0.4273   30.7378 H   0  0  0  0  0  0  0  0  0  0  0  0
    0.2104   -0.9555   31.6265 H   0  0  0  0  0  0  0  0  0  0  0  0
   -0.5336   -1.7982   32.9988 H   0  0  0  0  0  0  0  0  0  0  0  0
    1.1261   -4.1547   29.0565 H   0  0  0  0  0  0  0  0  0  0  0  0
    1.2116   -5.5172   30.1661 H   0  0  0  0  0  0  0  0  0  0  0  0
    3.1642   -4.6490   31.2379 H   0  0  0  0  0  0  0  0  0  0  0  0
    2.9001   -2.0904   29.5548 H   0  0  0  0  0  0  0  0  0  0  0  0
    2.5184   -2.2222   31.2366 H   0  0  0  0  0  0  0  0  0  0  0  0
    2.3600   -1.0000   33.0599 H   0  0  0  0  0  0  0  0  0  0  0  0
    3.0279   -1.0624   34.6733 H   0  0  0  0  0  0  0  0  0  0  0  0
    1.6125   -2.9945   34.4714 H   0  0  0  0  0  0  0  0  0  0  0  0
    2.2767   -3.4466   32.9259 H   0  0  0  0  0  0  0  0  0  0  0  0
    3.1241   -4.8918   34.4341 H   0  0  0  0  0  0  0  0  0  0  0  0
    4.7453   -4.2292   32.8490 H   0  0  0  0  0  0  0  0  0  0  0  0
    5.4886   -4.5034   34.4162 H   0  0  0  0  0  0  0  0  0  0  0  0
    5.4625   -2.0749   34.9350 H   0  0  0  0  0  0  0  0  0  0  0  0
    6.3520   -2.4128   33.4667 H   0  0  0  0  0  0  0  0  0  0  0  0
    5.7589   -1.7615   29.1062 H   0  0  0  0  0  0  0  0  0  0  0  0
    6.3371   -3.2235   29.9372 H   0  0  0  0  0  0  0  0  0  0  0  0
    3.9917   -2.9109   27.9932 H   0  0  0  0  0  0  0  0  0  0  0  0
    5.7280   -3.7301   26.8012 H   0  0  0  0  0  0  0  0  0  0  0  0
    4.9095   -6.1794   26.8092 H   0  0  0  0  0  0  0  0  0  0  0  0
    3.4040   -6.4789   28.4148 H   0  0  0  0  0  0  0  0  0  0  0  0
    4.6494   -5.2906   29.8123 H   0  0  0  0  0  0  0  0  0  0  0  0
   -1.7969   -2.6321   29.0702 H   0  0  0  0  0  0  0  0  0  0  0  0
    0.4498   -2.3149   27.8481 H   0  0  0  0  0  0  0  0  0  0  0  0
    0.9756   -1.6982   29.3661 H   0  0  0  0  0  0  0  0  0  0  0  0
    1.3349    0.5352   29.3834 H   0  0  0  0  0  0  0  0  0  0  0  0
    0.7534    2.8143   28.5998 H   0  0  0  0  0  0  0  0  0  0  0  0
   -2.0487   -1.0744   27.1978 H   0  0  0  0  0  0  0  0  0  0  0  0
   -2.5435    3.1664   25.2473 H   0  0  0  0  0  0  0  0  0  0  0  0
   -3.4426    3.2784   26.7792 H   0  0  0  0  0  0  0  0  0  0  0  0
  1  2  1  0
  2  3  1  0
  3  4  2  0
  3  5  2  0
  5  6  1  0
  6  7  1  0
  7  8  1  0
  8  9  1  0
  9 10  1  0
 10 11  2  0
 10 12  2  0
 10 13  1  0
 13 14  1  0
 14 15  1  0
 15 16  1  0
 16 17  1  0
 17 18  1  0
  9 19  1  0
 19 20  1  0
 20 21  1  0
 21 22  1  0
 22 23  1  0
 23 24  1  0
  3 25  1  0
 25 26  1  0
 26 27  1  0
 27 28  2  0
 28 29  1  0
 29 30  2  0
 30 31  1  0
 31 32  2  0
 31 33  1  0
 33 34  1  0
 34 35  1  0
 24  7  1  0
 32 27  1  0
 18 13  1  0
 24 20  1  0
 35 30  1  0
  1 36  1  0
  1 37  1  0
  1 38  1  0
  2 39  1  0
  2 40  1  0
  6 41  1  0
  6 42  1  0
  7 43  1  0
  8 44  1  0
  8 45  1  0
 14 46  1  0
 14 47  1  0
 15 48  1  0
 15 49  1  0
 16 50  1  0
 17 51  1  0
 17 52  1  0
 18 53  1  0
 18 54  1  0
 19 55  1  0
 19 56  1  0
 20 57  1  0
 21 58  1  0
 22 59  1  0
 23 60  1  0
 24 61  1  0
 25 62  1  0
 26 63  1  0
 26 64  1  0
 28 65  1  0
 29 66  1  0
 32 67  1  0
 34 68  1  0
 34 69  1  0
M  END
>  <Energy>  (324) 
-125.61932437152221

>  <compound_id>  (324) 
1641

>  <target_id>  (324) 
1

>  <reference_id>  (324) 
156

>  <inspiration_ids>  (324) 
[13, 156]

>  <energy_score>  (324) 
-122.89403270762465

>  <distance_score>  (324) 
1.5237347847423426

>  <path>  (324) 
/opt/xchem-fragalysis-2/maxwin/BulkDock/SCRATCH/505732/C1641-P156/C1641-P156.minimised.mol

>  <scratch_subdir>  (324) 
/opt/xchem-fragalysis-2/maxwin/BulkDock/SCRATCH/505732/C1641-P156

>  <fragmenstein_runtime>  (324) 
5.172892093658447

>  <fragmenstein_outcome>  (324) 
too moved

>  <fragmenstein_mode>  (324) 
expansion

>  <fragmenstein_error>  (324) 


$$$$
C1642-P13
     RDKit          3D

 65 69  0  0  0  0  0  0  0  0999 V2000
   -2.3657   -0.4852   32.4823 C   0  0  0  0  0  0  0  0  0  0  0  0
   -1.2641   -0.5596   31.4467 C   0  0  0  0  0  0  0  0  0  0  0  0
   -0.9207   -2.2662   31.0586 S   0  0  0  0  0  0  0  0  0  0  0  0
   -0.6173   -2.9288   32.3110 O   0  0  0  0  0  0  0  0  0  0  0  0
   -1.9508   -2.8326   30.2335 O   0  0  0  0  0  0  0  0  0  0  0  0
    0.5285   -2.2898   30.2963 N   0  0  0  0  0  0  0  0  0  0  0  0
    0.8794   -1.7556   29.0082 C   0  0  0  0  0  0  0  0  0  0  0  0
    1.0468   -2.7929   28.0268 N   0  0  0  0  0  0  0  0  0  0  0  0
    2.0633   -3.8399   28.2197 C   0  0  0  0  0  0  0  0  0  0  0  0
    3.4907   -3.5950   28.8415 C   0  0  0  0  0  0  0  0  0  0  0  0
    4.5478   -5.0895   28.5806 S   0  0  0  0  0  0  0  0  0  0  0  0
    4.3223   -2.2157   28.0694 Cl  0  0  0  0  0  0  0  0  0  0  0  0
    3.2919   -3.3547   30.3648 C   0  0  0  0  0  0  0  0  0  0  0  0
    3.4415   -2.3149   30.8826 O   0  0  0  0  0  0  0  0  0  0  0  0
    2.7793   -4.7095   30.9472 N   0  0  0  0  0  0  0  0  0  0  0  0
    2.2589   -5.0308   32.2563 C   0  0  0  0  0  0  0  0  0  0  0  0
    1.0091   -5.9458   31.9552 C   0  0  0  0  0  0  0  0  0  0  0  0
    0.9722   -7.2322   31.6654 N   0  0  0  0  0  0  0  0  0  0  0  0
   -0.2826   -7.6801   32.0519 N   0  0  0  0  0  0  0  0  0  0  0  0
   -0.8007   -6.6469   32.6942 C   0  0  0  0  0  0  0  0  0  0  0  0
   -0.8104   -6.4694   34.1182 C   0  0  0  0  0  0  0  0  0  0  0  0
   -0.9227   -5.2454   34.7493 C   0  0  0  0  0  0  0  0  0  0  0  0
   -0.4056   -5.2582   36.0640 C   0  0  0  0  0  0  0  0  0  0  0  0
   -0.0033   -6.5157   36.4331 C   0  0  0  0  0  0  0  0  0  0  0  0
   -0.2548   -7.6585   35.2032 S   0  0  0  0  0  0  0  0  0  0  0  0
   -0.3120   -5.5559   32.0016 N   0  0  0  0  0  0  0  0  0  0  0  0
    2.0020   -3.8283   33.2175 C   0  0  0  0  0  0  0  0  0  0  0  0
    3.3355   -4.1162   33.8996 C   0  0  0  0  0  0  0  0  0  0  0  0
    3.2550   -5.5347   33.3275 C   0  0  0  0  0  0  0  0  0  0  0  0
    0.1585   -0.5239   28.5045 C   0  0  0  0  0  0  0  0  0  0  0  0
    0.7872    0.7375   28.7093 C   0  0  0  0  0  0  0  0  0  0  0  0
    0.2382    1.9219   28.2198 C   0  0  0  0  0  0  0  0  0  0  0  0
   -0.9425    1.8316   27.5270 C   0  0  0  0  0  0  0  0  0  0  0  0
   -1.5759    0.6289   27.3300 C   0  0  0  0  0  0  0  0  0  0  0  0
   -1.0648   -0.5632   27.8141 C   0  0  0  0  0  0  0  0  0  0  0  0
   -2.7092    0.7766   26.5963 O   0  0  0  0  0  0  0  0  0  0  0  0
   -2.7426    2.2028   26.3941 C   0  0  0  0  0  0  0  0  0  0  0  0
   -1.5994    2.8761   26.9592 O   0  0  0  0  0  0  0  0  0  0  0  0
   -2.4828    0.5329   32.8538 H   0  0  0  0  0  0  0  0  0  0  0  0
   -3.3196   -0.8222   32.0657 H   0  0  0  0  0  0  0  0  0  0  0  0
   -2.1471   -1.1134   33.3522 H   0  0  0  0  0  0  0  0  0  0  0  0
   -1.5730   -0.0367   30.5433 H   0  0  0  0  0  0  0  0  0  0  0  0
   -0.3446   -0.1199   31.8432 H   0  0  0  0  0  0  0  0  0  0  0  0
    1.2706   -2.0852   30.9705 H   0  0  0  0  0  0  0  0  0  0  0  0
    1.8912   -1.3659   29.1529 H   0  0  0  0  0  0  0  0  0  0  0  0
    0.1260   -3.2065   27.8579 H   0  0  0  0  0  0  0  0  0  0  0  0
    1.5524   -4.6356   28.7715 H   0  0  0  0  0  0  0  0  0  0  0  0
    2.2357   -4.2650   27.2257 H   0  0  0  0  0  0  0  0  0  0  0  0
    5.7048   -4.4710   28.8668 H   0  0  0  0  0  0  0  0  0  0  0  0
    2.6954   -5.3912   30.1984 H   0  0  0  0  0  0  0  0  0  0  0  0
   -1.2697   -4.3346   34.2809 H   0  0  0  0  0  0  0  0  0  0  0  0
   -0.3578   -4.3984   36.7198 H   0  0  0  0  0  0  0  0  0  0  0  0
    0.3972   -6.8279   37.3873 H   0  0  0  0  0  0  0  0  0  0  0  0
   -0.5561   -4.6084   32.2421 H   0  0  0  0  0  0  0  0  0  0  0  0
    1.9371   -2.8237   32.8009 H   0  0  0  0  0  0  0  0  0  0  0  0
    1.1728   -3.9459   33.9153 H   0  0  0  0  0  0  0  0  0  0  0  0
    3.3385   -4.0440   34.9903 H   0  0  0  0  0  0  0  0  0  0  0  0
    4.1698   -3.5267   33.5029 H   0  0  0  0  0  0  0  0  0  0  0  0
    2.8422   -6.2702   34.0272 H   0  0  0  0  0  0  0  0  0  0  0  0
    4.2448   -5.8523   33.0167 H   0  0  0  0  0  0  0  0  0  0  0  0
    1.7390    0.7996   29.2366 H   0  0  0  0  0  0  0  0  0  0  0  0
    0.7258    2.8795   28.3643 H   0  0  0  0  0  0  0  0  0  0  0  0
   -1.5869   -1.4953   27.6128 H   0  0  0  0  0  0  0  0  0  0  0  0
   -2.7635    2.4041   25.3176 H   0  0  0  0  0  0  0  0  0  0  0  0
   -3.6559    2.6053   26.8430 H   0  0  0  0  0  0  0  0  0  0  0  0
  1  2  1  0
  2  3  1  0
  3  4  2  0
  3  5  2  0
  3  6  1  0
  6  7  1  0
  7  8  1  0
  8  9  1  0
  9 10  1  0
 10 11  1  0
 10 12  1  0
 10 13  1  0
 13 14  2  0
 13 15  1  0
 15 16  1  0
 16 17  1  0
 17 18  2  0
 18 19  1  0
 19 20  2  0
 20 21  1  0
 21 22  2  0
 22 23  1  0
 23 24  2  0
 24 25  1  0
 20 26  1  0
 16 27  1  0
 27 28  1  0
 28 29  1  0
  7 30  1  0
 30 31  2  0
 31 32  1  0
 32 33  2  0
 33 34  1  0
 34 35  2  0
 34 36  1  0
 36 37  1  0
 37 38  1  0
 29 16  1  0
 35 30  1  0
 26 17  1  0
 38 33  1  0
 25 21  1  0
  1 39  1  0
  1 40  1  0
  1 41  1  0
  2 42  1  0
  2 43  1  0
  6 44  1  0
  7 45  1  0
  8 46  1  0
  9 47  1  0
  9 48  1  0
 11 49  1  0
 15 50  1  0
 22 51  1  0
 23 52  1  0
 24 53  1  0
 26 54  1  0
 27 55  1  0
 27 56  1  0
 28 57  1  0
 28 58  1  0
 29 59  1  0
 29 60  1  0
 31 61  1  0
 32 62  1  0
 35 63  1  0
 37 64  1  0
 37 65  1  0
M  END
>  <Energy>  (325) 
24.033459004327117

>  <compound_id>  (325) 
1642

>  <target_id>  (325) 
1

>  <reference_id>  (325) 
13

>  <inspiration_ids>  (325) 
[13, 157]

>  <energy_score>  (325) 
-19.394779902489006

>  <distance_score>  (325) 
2.2207387192575188

>  <path>  (325) 
/opt/xchem-fragalysis-2/maxwin/BulkDock/SCRATCH/505732/C1642-P13/C1642-P13.minimised.mol

>  <scratch_subdir>  (325) 
/opt/xchem-fragalysis-2/maxwin/BulkDock/SCRATCH/505732/C1642-P13

>  <fragmenstein_runtime>  (325) 
9.151320695877075

>  <fragmenstein_outcome>  (325) 
too moved

>  <fragmenstein_mode>  (325) 
expansion

>  <fragmenstein_error>  (325) 


$$$$
C1642-P157
     RDKit          3D

 65 69  0  0  0  0  0  0  0  0999 V2000
    1.3309    0.6531   32.2862 C   0  0  0  0  0  0  0  0  0  0  0  0
    1.3877   -0.7537   32.8357 C   0  0  0  0  0  0  0  0  0  0  0  0
    0.8877   -2.0617   31.7374 S   0  0  0  0  0  0  0  0  0  0  0  0
    2.0987   -2.7534   31.3798 O   0  0  0  0  0  0  0  0  0  0  0  0
   -0.2568   -2.8058   32.1956 O   0  0  0  0  0  0  0  0  0  0  0  0
    0.3799   -1.2919   30.4126 N   0  0  0  0  0  0  0  0  0  0  0  0
   -0.9820   -0.9366   30.1515 C   0  0  0  0  0  0  0  0  0  0  0  0
   -1.7711   -0.1926   31.1521 N   0  0  0  0  0  0  0  0  0  0  0  0
   -1.8985   -0.3679   32.6293 C   0  0  0  0  0  0  0  0  0  0  0  0
   -2.5058   -1.5865   33.4369 C   0  0  0  0  0  0  0  0  0  0  0  0
   -3.9102   -1.0485   34.5130 S   0  0  0  0  0  0  0  0  0  0  0  0
   -3.2063   -2.7078   32.2252 Cl  0  0  0  0  0  0  0  0  0  0  0  0
   -1.4036   -2.2439   34.4520 C   0  0  0  0  0  0  0  0  0  0  0  0
   -0.6702   -1.5789   35.0771 O   0  0  0  0  0  0  0  0  0  0  0  0
   -1.4872   -3.7888   34.3089 N   0  0  0  0  0  0  0  0  0  0  0  0
   -0.6088   -4.8511   34.8399 C   0  0  0  0  0  0  0  0  0  0  0  0
   -0.4594   -5.8729   33.6147 C   0  0  0  0  0  0  0  0  0  0  0  0
   -0.0191   -7.1086   33.5069 N   0  0  0  0  0  0  0  0  0  0  0  0
    0.3050   -7.3064   32.1517 N   0  0  0  0  0  0  0  0  0  0  0  0
    0.0470   -6.1827   31.5200 C   0  0  0  0  0  0  0  0  0  0  0  0
    0.6102   -5.5741   30.3590 C   0  0  0  0  0  0  0  0  0  0  0  0
    0.0131   -4.6085   29.5737 C   0  0  0  0  0  0  0  0  0  0  0  0
    0.9302   -3.9345   28.7314 C   0  0  0  0  0  0  0  0  0  0  0  0
    2.2020   -4.4192   28.8675 C   0  0  0  0  0  0  0  0  0  0  0  0
    2.2672   -5.6657   29.9961 S   0  0  0  0  0  0  0  0  0  0  0  0
   -0.6776   -5.4003   32.3540 N   0  0  0  0  0  0  0  0  0  0  0  0
    0.7298   -4.4386   35.4855 C   0  0  0  0  0  0  0  0  0  0  0  0
    0.4942   -5.5513   36.5289 C   0  0  0  0  0  0  0  0  0  0  0  0
   -1.0074   -5.4777   36.1810 C   0  0  0  0  0  0  0  0  0  0  0  0
   -0.8745    0.0080   28.9350 C   0  0  0  0  0  0  0  0  0  0  0  0
    0.0483    1.0957   28.9587 C   0  0  0  0  0  0  0  0  0  0  0  0
    0.0215    2.1212   28.0202 C   0  0  0  0  0  0  0  0  0  0  0  0
   -0.9729    2.0645   27.0863 C   0  0  0  0  0  0  0  0  0  0  0  0
   -1.8204    0.9864   26.9979 C   0  0  0  0  0  0  0  0  0  0  0  0
   -1.7471   -0.0945   27.8555 C   0  0  0  0  0  0  0  0  0  0  0  0
   -2.7581    1.1722   26.0317 O   0  0  0  0  0  0  0  0  0  0  0  0
   -2.5147    2.5454   25.6708 C   0  0  0  0  0  0  0  0  0  0  0  0
   -1.2658    3.0405   26.1896 O   0  0  0  0  0  0  0  0  0  0  0  0
    1.6698    1.3530   33.0586 H   0  0  0  0  0  0  0  0  0  0  0  0
    2.0312    0.7542   31.4511 H   0  0  0  0  0  0  0  0  0  0  0  0
    0.3534    0.9986   31.9653 H   0  0  0  0  0  0  0  0  0  0  0  0
    2.4346   -0.9685   33.0861 H   0  0  0  0  0  0  0  0  0  0  0  0
    0.8570   -0.8227   33.7711 H   0  0  0  0  0  0  0  0  0  0  0  0
    0.9723   -1.4356   29.5967 H   0  0  0  0  0  0  0  0  0  0  0  0
   -1.5271   -1.8354   29.8443 H   0  0  0  0  0  0  0  0  0  0  0  0
   -2.6990   -0.0580   30.7501 H   0  0  0  0  0  0  0  0  0  0  0  0
   -2.5214    0.4965   32.8926 H   0  0  0  0  0  0  0  0  0  0  0  0
   -0.9682   -0.0851   33.1017 H   0  0  0  0  0  0  0  0  0  0  0  0
   -4.1950   -2.2878   34.9502 H   0  0  0  0  0  0  0  0  0  0  0  0
   -2.2985   -4.0341   33.7498 H   0  0  0  0  0  0  0  0  0  0  0  0
   -1.0146   -4.2948   29.6429 H   0  0  0  0  0  0  0  0  0  0  0  0
    0.6651   -3.1138   28.0797 H   0  0  0  0  0  0  0  0  0  0  0  0
    3.0957   -4.0783   28.3631 H   0  0  0  0  0  0  0  0  0  0  0  0
   -0.8571   -4.4212   32.1849 H   0  0  0  0  0  0  0  0  0  0  0  0
    0.7527   -3.4421   35.9373 H   0  0  0  0  0  0  0  0  0  0  0  0
    1.6274   -4.5584   34.8715 H   0  0  0  0  0  0  0  0  0  0  0  0
    0.9625   -6.5079   36.2705 H   0  0  0  0  0  0  0  0  0  0  0  0
    0.7534   -5.2973   37.5598 H   0  0  0  0  0  0  0  0  0  0  0  0
   -1.5149   -6.4435   36.1306 H   0  0  0  0  0  0  0  0  0  0  0  0
   -1.5714   -4.8070   36.8383 H   0  0  0  0  0  0  0  0  0  0  0  0
    0.7641    1.1906   29.7640 H   0  0  0  0  0  0  0  0  0  0  0  0
    0.6910    2.9707   28.0822 H   0  0  0  0  0  0  0  0  0  0  0  0
   -2.4163   -0.9381   27.7388 H   0  0  0  0  0  0  0  0  0  0  0  0
   -2.4832    2.6262   24.5799 H   0  0  0  0  0  0  0  0  0  0  0  0
   -3.3358    3.1665   26.0471 H   0  0  0  0  0  0  0  0  0  0  0  0
  1  2  1  0
  2  3  1  0
  3  4  2  0
  3  5  2  0
  3  6  1  0
  6  7  1  0
  7  8  1  0
  8  9  1  0
  9 10  1  0
 10 11  1  0
 10 12  1  0
 10 13  1  0
 13 14  2  0
 13 15  1  0
 15 16  1  0
 16 17  1  0
 17 18  2  0
 18 19  1  0
 19 20  2  0
 20 21  1  0
 21 22  2  0
 22 23  1  0
 23 24  2  0
 24 25  1  0
 20 26  1  0
 16 27  1  0
 27 28  1  0
 28 29  1  0
  7 30  1  0
 30 31  2  0
 31 32  1  0
 32 33  2  0
 33 34  1  0
 34 35  2  0
 34 36  1  0
 36 37  1  0
 37 38  1  0
 29 16  1  0
 35 30  1  0
 26 17  1  0
 38 33  1  0
 25 21  1  0
  1 39  1  0
  1 40  1  0
  1 41  1  0
  2 42  1  0
  2 43  1  0
  6 44  1  0
  7 45  1  0
  8 46  1  0
  9 47  1  0
  9 48  1  0
 11 49  1  0
 15 50  1  0
 22 51  1  0
 23 52  1  0
 24 53  1  0
 26 54  1  0
 27 55  1  0
 27 56  1  0
 28 57  1  0
 28 58  1  0
 29 59  1  0
 29 60  1  0
 31 61  1  0
 32 62  1  0
 35 63  1  0
 37 64  1  0
 37 65  1  0
M  END
>  <Energy>  (326) 
39.653509899790784

>  <compound_id>  (326) 
1642

>  <target_id>  (326) 
1

>  <reference_id>  (326) 
157

>  <inspiration_ids>  (326) 
[13, 157]

>  <energy_score>  (326) 
-3.774729007019573

>  <distance_score>  (326) 
2.2237348449669234

>  <path>  (326) 
/opt/xchem-fragalysis-2/maxwin/BulkDock/SCRATCH/505732/C1642-P157/C1642-P157.minimised.mol

>  <scratch_subdir>  (326) 
/opt/xchem-fragalysis-2/maxwin/BulkDock/SCRATCH/505732/C1642-P157

>  <fragmenstein_runtime>  (326) 
12.662867784500122

>  <fragmenstein_outcome>  (326) 
too moved

>  <fragmenstein_mode>  (326) 
expansion

>  <fragmenstein_error>  (326) 


$$$$
C1645-P13
     RDKit          3D

 51 54  0  0  0  0  0  0  0  0999 V2000
   -2.6883   -0.9426   32.1355 C   0  0  0  0  0  0  0  0  0  0  0  0
   -1.2125   -1.2461   32.0398 C   0  0  0  0  0  0  0  0  0  0  0  0
   -0.8278   -2.5941   30.9546 S   0  0  0  0  0  0  0  0  0  0  0  0
    0.5997   -2.5660   30.7202 O   0  0  0  0  0  0  0  0  0  0  0  0
   -1.5880   -3.8637   31.3914 N   0  0  0  0  0  0  0  0  0  0  0  0
   -0.7744   -5.0286   31.8439 C   0  0  0  0  0  0  0  0  0  0  0  0
    0.0843   -4.6557   33.0611 C   0  0  0  0  0  0  0  0  0  0  0  0
    1.4096   -4.1960   32.6683 N   0  0  0  0  0  0  0  0  0  0  0  0
    2.4242   -4.9653   33.1581 C   0  0  0  0  0  0  0  0  0  0  0  0
    3.6132   -4.8849   32.9374 O   0  0  0  0  0  0  0  0  0  0  0  0
    1.7934   -5.9465   34.0310 C   0  0  0  0  0  0  0  0  0  0  0  0
    2.4061   -6.8139   34.8889 C   0  0  0  0  0  0  0  0  0  0  0  0
    1.5560   -7.5696   35.6901 C   0  0  0  0  0  0  0  0  0  0  0  0
    2.3325   -8.5206   36.9394 S   0  0  0  0  0  0  0  0  0  0  0  0
    3.0214   -9.6015   36.2668 O   0  0  0  0  0  0  0  0  0  0  0  0
    1.3980   -8.7185   38.0253 O   0  0  0  0  0  0  0  0  0  0  0  0
    3.4622   -7.5548   37.5041 F   0  0  0  0  0  0  0  0  0  0  0  0
    0.1544   -7.4910   35.6108 C   0  0  0  0  0  0  0  0  0  0  0  0
   -0.4327   -6.5877   34.7299 C   0  0  0  0  0  0  0  0  0  0  0  0
    0.4088   -5.8048   33.9581 C   0  0  0  0  0  0  0  0  0  0  0  0
   -1.5294   -2.3104   29.4783 N   0  0  0  0  0  0  0  0  0  0  0  0
   -0.7551   -1.9150   28.3214 C   0  0  0  0  0  0  0  0  0  0  0  0
   -0.6468   -0.4232   28.1775 C   0  0  0  0  0  0  0  0  0  0  0  0
    0.4129    0.3056   28.7567 C   0  0  0  0  0  0  0  0  0  0  0  0
    0.4934    1.6925   28.5947 C   0  0  0  0  0  0  0  0  0  0  0  0
   -0.4980    2.3128   27.8637 C   0  0  0  0  0  0  0  0  0  0  0  0
   -1.5305    1.6079   27.2970 C   0  0  0  0  0  0  0  0  0  0  0  0
   -1.6284    0.2467   27.4311 C   0  0  0  0  0  0  0  0  0  0  0  0
   -2.3919    2.3991   26.6087 O   0  0  0  0  0  0  0  0  0  0  0  0
   -1.8784    3.7000   26.9527 C   0  0  0  0  0  0  0  0  0  0  0  0
   -0.5889    3.6449   27.6075 O   0  0  0  0  0  0  0  0  0  0  0  0
   -2.8637   -0.1566   32.8759 H   0  0  0  0  0  0  0  0  0  0  0  0
   -3.0698   -0.5930   31.1736 H   0  0  0  0  0  0  0  0  0  0  0  0
   -3.2666   -1.8224   32.4331 H   0  0  0  0  0  0  0  0  0  0  0  0
   -0.6692   -0.3684   31.6757 H   0  0  0  0  0  0  0  0  0  0  0  0
   -0.8080   -1.5024   33.0238 H   0  0  0  0  0  0  0  0  0  0  0  0
   -1.4610   -5.8394   32.1002 H   0  0  0  0  0  0  0  0  0  0  0  0
   -0.1605   -5.3957   31.0115 H   0  0  0  0  0  0  0  0  0  0  0  0
   -0.3710   -3.8593   33.6620 H   0  0  0  0  0  0  0  0  0  0  0  0
    1.5772   -3.4860   31.9525 H   0  0  0  0  0  0  0  0  0  0  0  0
    3.4884   -6.8501   34.9684 H   0  0  0  0  0  0  0  0  0  0  0  0
   -0.4707   -8.1049   36.2582 H   0  0  0  0  0  0  0  0  0  0  0  0
   -1.5106   -6.4702   34.6929 H   0  0  0  0  0  0  0  0  0  0  0  0
   -2.0255   -3.1606   29.2256 H   0  0  0  0  0  0  0  0  0  0  0  0
    0.2285   -2.3950   28.2715 H   0  0  0  0  0  0  0  0  0  0  0  0
   -1.2998   -2.2808   27.4539 H   0  0  0  0  0  0  0  0  0  0  0  0
    1.1829   -0.2139   29.3233 H   0  0  0  0  0  0  0  0  0  0  0  0
    1.3042    2.2654   29.0292 H   0  0  0  0  0  0  0  0  0  0  0  0
   -2.4341   -0.2961   26.9491 H   0  0  0  0  0  0  0  0  0  0  0  0
   -1.7813    4.2947   26.0382 H   0  0  0  0  0  0  0  0  0  0  0  0
   -2.5862    4.1909   27.6284 H   0  0  0  0  0  0  0  0  0  0  0  0
  1  2  1  0
  2  3  1  0
  3  4  2  0
  3  5  2  0
  5  6  1  0
  6  7  1  0
  7  8  1  0
  8  9  1  0
  9 10  2  0
  9 11  1  0
 11 12  2  0
 12 13  1  0
 13 14  1  0
 14 15  2  0
 14 16  2  0
 14 17  1  0
 13 18  2  0
 18 19  1  0
 19 20  2  0
  3 21  1  0
 21 22  1  0
 22 23  1  0
 23 24  2  0
 24 25  1  0
 25 26  2  0
 26 27  1  0
 27 28  2  0
 27 29  1  0
 29 30  1  0
 30 31  1  0
 20  7  1  0
 28 23  1  0
 20 11  1  0
 31 26  1  0
  1 32  1  0
  1 33  1  0
  1 34  1  0
  2 35  1  0
  2 36  1  0
  6 37  1  0
  6 38  1  0
  7 39  1  0
  8 40  1  0
 12 41  1  0
 18 42  1  0
 19 43  1  0
 21 44  1  0
 22 45  1  0
 22 46  1  0
 24 47  1  0
 25 48  1  0
 28 49  1  0
 30 50  1  0
 30 51  1  0
M  END
>  <Energy>  (327) 
-28.734822885692186

>  <compound_id>  (327) 
1645

>  <target_id>  (327) 
1

>  <reference_id>  (327) 
13

>  <inspiration_ids>  (327) 
[13, 162]

>  <energy_score>  (327) 
-61.248100203002934

>  <distance_score>  (327) 
2.769292601189303

>  <path>  (327) 
/opt/xchem-fragalysis-2/maxwin/BulkDock/SCRATCH/505732/C1645-P13/C1645-P13.minimised.mol

>  <scratch_subdir>  (327) 
/opt/xchem-fragalysis-2/maxwin/BulkDock/SCRATCH/505732/C1645-P13

>  <fragmenstein_runtime>  (327) 
6.119434356689453

>  <fragmenstein_outcome>  (327) 
too moved

>  <fragmenstein_mode>  (327) 
expansion

>  <fragmenstein_error>  (327) 


$$$$
C1645-P162
     RDKit          3D

 51 54  0  0  0  0  0  0  0  0999 V2000
   -2.9102   -1.2066   31.5220 C   0  0  0  0  0  0  0  0  0  0  0  0
   -1.5425   -1.5083   32.0704 C   0  0  0  0  0  0  0  0  0  0  0  0
   -0.8363   -3.0309   31.5240 S   0  0  0  0  0  0  0  0  0  0  0  0
    0.5804   -2.9004   31.7675 O   0  0  0  0  0  0  0  0  0  0  0  0
   -1.6216   -4.2787   32.0233 N   0  0  0  0  0  0  0  0  0  0  0  0
   -1.0305   -4.9227   33.2707 C   0  0  0  0  0  0  0  0  0  0  0  0
   -1.0734   -6.5163   33.4119 C   0  0  0  0  0  0  0  0  0  0  0  0
   -1.4176   -7.2423   32.2063 N   0  0  0  0  0  0  0  0  0  0  0  0
   -0.3727   -7.2389   31.3223 C   0  0  0  0  0  0  0  0  0  0  0  0
   -0.3827   -7.5074   30.1417 O   0  0  0  0  0  0  0  0  0  0  0  0
    0.7748   -6.8272   32.1281 C   0  0  0  0  0  0  0  0  0  0  0  0
    1.7763   -5.9914   31.7243 C   0  0  0  0  0  0  0  0  0  0  0  0
    2.4793   -5.3435   32.7460 C   0  0  0  0  0  0  0  0  0  0  0  0
    3.4044   -3.9194   32.2628 S   0  0  0  0  0  0  0  0  0  0  0  0
    4.7303   -4.3860   31.9090 O   0  0  0  0  0  0  0  0  0  0  0  0
    3.2040   -2.8862   33.2595 O   0  0  0  0  0  0  0  0  0  0  0  0
    2.7458   -3.4030   30.9089 F   0  0  0  0  0  0  0  0  0  0  0  0
    2.2905   -5.6182   34.1226 C   0  0  0  0  0  0  0  0  0  0  0  0
    1.2302   -6.4228   34.5178 C   0  0  0  0  0  0  0  0  0  0  0  0
    0.4038   -6.8519   33.4863 C   0  0  0  0  0  0  0  0  0  0  0  0
   -0.9379   -3.1691   29.8729 N   0  0  0  0  0  0  0  0  0  0  0  0
   -0.0248   -2.5351   28.9472 C   0  0  0  0  0  0  0  0  0  0  0  0
   -0.3451   -1.0979   28.6077 C   0  0  0  0  0  0  0  0  0  0  0  0
    0.5847   -0.0740   28.9051 C   0  0  0  0  0  0  0  0  0  0  0  0
    0.3613    1.2485   28.5017 C   0  0  0  0  0  0  0  0  0  0  0  0
   -0.7962    1.5232   27.8085 C   0  0  0  0  0  0  0  0  0  0  0  0
   -1.7123    0.5424   27.5239 C   0  0  0  0  0  0  0  0  0  0  0  0
   -1.5196   -0.7700   27.9076 C   0  0  0  0  0  0  0  0  0  0  0  0
   -2.7713    1.0204   26.8204 O   0  0  0  0  0  0  0  0  0  0  0  0
   -2.4362    2.4166   26.7139 C   0  0  0  0  0  0  0  0  0  0  0  0
   -1.1657    2.7381   27.3220 O   0  0  0  0  0  0  0  0  0  0  0  0
   -3.2947   -0.2743   31.9459 H   0  0  0  0  0  0  0  0  0  0  0  0
   -2.8897   -1.0976   30.4363 H   0  0  0  0  0  0  0  0  0  0  0  0
   -3.6151   -2.0076   31.7665 H   0  0  0  0  0  0  0  0  0  0  0  0
   -0.8482   -0.7091   31.7906 H   0  0  0  0  0  0  0  0  0  0  0  0
   -1.5696   -1.5495   33.1644 H   0  0  0  0  0  0  0  0  0  0  0  0
    0.0034   -4.5789   33.3048 H   0  0  0  0  0  0  0  0  0  0  0  0
   -1.3374   -4.4117   34.1840 H   0  0  0  0  0  0  0  0  0  0  0  0
   -1.6237   -6.8882   34.2780 H   0  0  0  0  0  0  0  0  0  0  0  0
   -2.3532   -7.2521   31.8370 H   0  0  0  0  0  0  0  0  0  0  0  0
    1.8842   -5.7265   30.6760 H   0  0  0  0  0  0  0  0  0  0  0  0
    2.8671   -5.0738   34.8706 H   0  0  0  0  0  0  0  0  0  0  0  0
    0.9192   -6.4529   35.5590 H   0  0  0  0  0  0  0  0  0  0  0  0
   -1.8862   -3.1426   29.5223 H   0  0  0  0  0  0  0  0  0  0  0  0
    1.0086   -2.6191   29.3004 H   0  0  0  0  0  0  0  0  0  0  0  0
   -0.0393   -3.1166   28.0262 H   0  0  0  0  0  0  0  0  0  0  0  0
    1.5069   -0.3140   29.4323 H   0  0  0  0  0  0  0  0  0  0  0  0
    1.0817    2.0304   28.7139 H   0  0  0  0  0  0  0  0  0  0  0  0
   -2.2358   -1.5317   27.6110 H   0  0  0  0  0  0  0  0  0  0  0  0
   -2.3878    2.6861   25.6529 H   0  0  0  0  0  0  0  0  0  0  0  0
   -3.2188    3.0143   27.1893 H   0  0  0  0  0  0  0  0  0  0  0  0
  1  2  1  0
  2  3  1  0
  3  4  2  0
  3  5  2  0
  5  6  1  0
  6  7  1  0
  7  8  1  0
  8  9  1  0
  9 10  2  0
  9 11  1  0
 11 12  2  0
 12 13  1  0
 13 14  1  0
 14 15  2  0
 14 16  2  0
 14 17  1  0
 13 18  2  0
 18 19  1  0
 19 20  2  0
  3 21  1  0
 21 22  1  0
 22 23  1  0
 23 24  2  0
 24 25  1  0
 25 26  2  0
 26 27  1  0
 27 28  2  0
 27 29  1  0
 29 30  1  0
 30 31  1  0
 20  7  1  0
 28 23  1  0
 20 11  1  0
 31 26  1  0
  1 32  1  0
  1 33  1  0
  1 34  1  0
  2 35  1  0
  2 36  1  0
  6 37  1  0
  6 38  1  0
  7 39  1  0
  8 40  1  0
 12 41  1  0
 18 42  1  0
 19 43  1  0
 21 44  1  0
 22 45  1  0
 22 46  1  0
 24 47  1  0
 25 48  1  0
 28 49  1  0
 30 50  1  0
 30 51  1  0
M  END
>  <Energy>  (328) 
28.230816665710432

>  <compound_id>  (328) 
1645

>  <target_id>  (328) 
1

>  <reference_id>  (328) 
162

>  <inspiration_ids>  (328) 
[13, 162]

>  <energy_score>  (328) 
-40.99922808424424

>  <distance_score>  (328) 
1.5530833909372144

>  <path>  (328) 
/opt/xchem-fragalysis-2/maxwin/BulkDock/SCRATCH/505732/C1645-P162/C1645-P162.minimised.mol

>  <scratch_subdir>  (328) 
/opt/xchem-fragalysis-2/maxwin/BulkDock/SCRATCH/505732/C1645-P162

>  <fragmenstein_runtime>  (328) 
3.826953887939453

>  <fragmenstein_outcome>  (328) 
too moved

>  <fragmenstein_mode>  (328) 
expansion

>  <fragmenstein_error>  (328) 


$$$$
C1646-P13
     RDKit          3D

 45 47  0  0  0  0  0  0  0  0999 V2000
   -2.3683   -0.8180   31.6262 C   0  0  0  0  0  0  0  0  0  0  0  0
   -0.9550   -1.2796   31.8769 C   0  0  0  0  0  0  0  0  0  0  0  0
   -0.5957   -2.8951   31.2580 S   0  0  0  0  0  0  0  0  0  0  0  0
    0.8360   -3.0860   31.3550 O   0  0  0  0  0  0  0  0  0  0  0  0
   -1.6018   -3.9229   31.8174 N   0  0  0  0  0  0  0  0  0  0  0  0
   -1.0470   -4.7749   32.8971 C   0  0  0  0  0  0  0  0  0  0  0  0
   -1.1056   -6.2658   32.5362 C   0  0  0  0  0  0  0  0  0  0  0  0
   -0.2021   -6.8786   33.5213 C   0  0  0  0  0  0  0  0  0  0  0  0
   -0.6515   -7.2827   34.6615 N   0  0  0  0  0  0  0  0  0  0  0  0
    0.3002   -7.5174   35.6168 C   0  0  0  0  0  0  0  0  0  0  0  0
    1.5822   -7.1537   35.4949 C   0  0  0  0  0  0  0  0  0  0  0  0
    1.9860   -6.5784   34.2038 C   0  0  0  0  0  0  0  0  0  0  0  0
    3.0201   -5.9504   34.0349 O   0  0  0  0  0  0  0  0  0  0  0  0
    1.1132   -6.7729   33.1926 N   0  0  0  0  0  0  0  0  0  0  0  0
   -0.8983   -2.9967   29.6375 N   0  0  0  0  0  0  0  0  0  0  0  0
   -0.0475   -2.4105   28.6348 C   0  0  0  0  0  0  0  0  0  0  0  0
   -0.3500   -0.9663   28.3280 C   0  0  0  0  0  0  0  0  0  0  0  0
    0.5865    0.0462   28.6377 C   0  0  0  0  0  0  0  0  0  0  0  0
    0.3545    1.3770   28.2721 C   0  0  0  0  0  0  0  0  0  0  0  0
   -0.8127    1.6652   27.5992 C   0  0  0  0  0  0  0  0  0  0  0  0
   -1.7340    0.6925   27.3040 C   0  0  0  0  0  0  0  0  0  0  0  0
   -1.5384   -0.6241   27.6607 C   0  0  0  0  0  0  0  0  0  0  0  0
   -2.7973    1.1803   26.6132 O   0  0  0  0  0  0  0  0  0  0  0  0
   -2.4701    2.5811   26.5510 C   0  0  0  0  0  0  0  0  0  0  0  0
   -1.1839    2.8882   27.1359 O   0  0  0  0  0  0  0  0  0  0  0  0
   -2.5419    0.1149   32.1647 H   0  0  0  0  0  0  0  0  0  0  0  0
   -2.5469   -0.6426   30.5629 H   0  0  0  0  0  0  0  0  0  0  0  0
   -3.1034   -1.5475   31.9789 H   0  0  0  0  0  0  0  0  0  0  0  0
   -0.7567   -1.3132   32.9539 H   0  0  0  0  0  0  0  0  0  0  0  0
   -0.2373   -0.5825   31.4361 H   0  0  0  0  0  0  0  0  0  0  0  0
   -0.0142   -4.4816   33.1260 H   0  0  0  0  0  0  0  0  0  0  0  0
   -1.5489   -4.5727   33.8391 H   0  0  0  0  0  0  0  0  0  0  0  0
   -0.7448   -6.4433   31.5167 H   0  0  0  0  0  0  0  0  0  0  0  0
   -2.0755   -6.7324   32.6411 H   0  0  0  0  0  0  0  0  0  0  0  0
   -0.0573   -7.9688   36.5391 H   0  0  0  0  0  0  0  0  0  0  0  0
    2.3192   -7.2644   36.2762 H   0  0  0  0  0  0  0  0  0  0  0  0
    1.3789   -6.2970   32.3377 H   0  0  0  0  0  0  0  0  0  0  0  0
   -1.8805   -2.9073   29.4087 H   0  0  0  0  0  0  0  0  0  0  0  0
    1.0122   -2.5319   28.8880 H   0  0  0  0  0  0  0  0  0  0  0  0
   -0.1776   -2.9956   27.7276 H   0  0  0  0  0  0  0  0  0  0  0  0
    1.5149   -0.2082   29.1457 H   0  0  0  0  0  0  0  0  0  0  0  0
    1.0737    2.1570   28.4939 H   0  0  0  0  0  0  0  0  0  0  0  0
   -2.2617   -1.3799   27.3659 H   0  0  0  0  0  0  0  0  0  0  0  0
   -3.2410    3.1546   27.0735 H   0  0  0  0  0  0  0  0  0  0  0  0
   -2.4556    2.8898   25.4995 H   0  0  0  0  0  0  0  0  0  0  0  0
  1  2  1  0
  2  3  1  0
  3  4  2  0
  3  5  2  0
  5  6  1  0
  6  7  1  0
  7  8  1  0
  8  9  2  0
  9 10  1  0
 10 11  2  0
 11 12  1  0
 12 13  2  0
 12 14  1  0
  3 15  1  0
 15 16  1  0
 16 17  1  0
 17 18  2  0
 18 19  1  0
 19 20  2  0
 20 21  1  0
 21 22  2  0
 21 23  1  0
 23 24  1  0
 24 25  1  0
 14  8  1  0
 22 17  1  0
 25 20  1  0
  1 26  1  0
  1 27  1  0
  1 28  1  0
  2 29  1  0
  2 30  1  0
  6 31  1  0
  6 32  1  0
  7 33  1  0
  7 34  1  0
 10 35  1  0
 11 36  1  0
 14 37  1  0
 15 38  1  0
 16 39  1  0
 16 40  1  0
 18 41  1  0
 19 42  1  0
 22 43  1  0
 24 44  1  0
 24 45  1  0
M  END
>  <Energy>  (329) 
-138.81193086094581

>  <compound_id>  (329) 
1646

>  <target_id>  (329) 
1

>  <reference_id>  (329) 
13

>  <inspiration_ids>  (329) 
[13, 163]

>  <energy_score>  (329) 
-57.31474372984155

>  <distance_score>  (329) 
1.3738121832500156

>  <path>  (329) 
/opt/xchem-fragalysis-2/maxwin/BulkDock/SCRATCH/505732/C1646-P13/C1646-P13.minimised.mol

>  <scratch_subdir>  (329) 
/opt/xchem-fragalysis-2/maxwin/BulkDock/SCRATCH/505732/C1646-P13

>  <fragmenstein_runtime>  (329) 
4.306847810745239

>  <fragmenstein_outcome>  (329) 
too moved

>  <fragmenstein_mode>  (329) 
expansion

>  <fragmenstein_error>  (329) 


$$$$
C1646-P163
     RDKit          3D

 45 47  0  0  0  0  0  0  0  0999 V2000
   -2.2059   -0.6140   31.6796 C   0  0  0  0  0  0  0  0  0  0  0  0
   -0.8273   -1.1590   31.9581 C   0  0  0  0  0  0  0  0  0  0  0  0
   -0.5294   -2.7773   31.3099 S   0  0  0  0  0  0  0  0  0  0  0  0
    0.8933   -3.0300   31.4048 O   0  0  0  0  0  0  0  0  0  0  0  0
   -1.5679   -3.7841   31.8461 N   0  0  0  0  0  0  0  0  0  0  0  0
   -1.0445   -4.6154   32.9604 C   0  0  0  0  0  0  0  0  0  0  0  0
   -1.1223   -6.1140   32.6358 C   0  0  0  0  0  0  0  0  0  0  0  0
   -0.1947   -6.7346   33.5932 C   0  0  0  0  0  0  0  0  0  0  0  0
   -0.6164   -7.1848   34.7263 N   0  0  0  0  0  0  0  0  0  0  0  0
    0.3509   -7.3983   35.6704 C   0  0  0  0  0  0  0  0  0  0  0  0
    1.6300   -7.0327   35.5270 C   0  0  0  0  0  0  0  0  0  0  0  0
    2.0149   -6.4564   34.2318 C   0  0  0  0  0  0  0  0  0  0  0  0
    3.0626   -5.8597   34.0372 O   0  0  0  0  0  0  0  0  0  0  0  0
    1.1127   -6.6094   33.2401 N   0  0  0  0  0  0  0  0  0  0  0  0
   -0.8245   -2.8390   29.6857 N   0  0  0  0  0  0  0  0  0  0  0  0
    0.0550   -2.2397   28.7157 C   0  0  0  0  0  0  0  0  0  0  0  0
   -0.2507   -0.7998   28.3987 C   0  0  0  0  0  0  0  0  0  0  0  0
    0.6637    0.2225   28.7354 C   0  0  0  0  0  0  0  0  0  0  0  0
    0.4266    1.5513   28.3649 C   0  0  0  0  0  0  0  0  0  0  0  0
   -0.7219    1.8284   27.6570 C   0  0  0  0  0  0  0  0  0  0  0  0
   -1.6168    0.8442   27.3259 C   0  0  0  0  0  0  0  0  0  0  0  0
   -1.4179   -0.4702   27.6916 C   0  0  0  0  0  0  0  0  0  0  0  0
   -2.6572    1.3200   26.5913 O   0  0  0  0  0  0  0  0  0  0  0  0
   -2.3588    2.7285   26.5638 C   0  0  0  0  0  0  0  0  0  0  0  0
   -1.0966    3.0481   27.1883 O   0  0  0  0  0  0  0  0  0  0  0  0
   -2.3355    0.3431   32.1912 H   0  0  0  0  0  0  0  0  0  0  0  0
   -2.3560   -0.4474   30.6112 H   0  0  0  0  0  0  0  0  0  0  0  0
   -2.9848   -1.2944   32.0357 H   0  0  0  0  0  0  0  0  0  0  0  0
   -0.6590   -1.2236   33.0386 H   0  0  0  0  0  0  0  0  0  0  0  0
   -0.0625   -0.4923   31.5498 H   0  0  0  0  0  0  0  0  0  0  0  0
   -0.0056   -4.3423   33.1866 H   0  0  0  0  0  0  0  0  0  0  0  0
   -1.5326   -4.3519   33.8933 H   0  0  0  0  0  0  0  0  0  0  0  0
   -0.8000   -6.3170   31.6079 H   0  0  0  0  0  0  0  0  0  0  0  0
   -2.0895   -6.5648   32.7857 H   0  0  0  0  0  0  0  0  0  0  0  0
    0.0107   -7.8316   36.6091 H   0  0  0  0  0  0  0  0  0  0  0  0
    2.3748   -7.1307   36.3034 H   0  0  0  0  0  0  0  0  0  0  0  0
    1.3597   -6.0996   32.3988 H   0  0  0  0  0  0  0  0  0  0  0  0
   -1.8024   -2.7157   29.4595 H   0  0  0  0  0  0  0  0  0  0  0  0
    1.1078   -2.3493   29.0016 H   0  0  0  0  0  0  0  0  0  0  0  0
   -0.0376   -2.8256   27.8080 H   0  0  0  0  0  0  0  0  0  0  0  0
    1.5812   -0.0196   29.2691 H   0  0  0  0  0  0  0  0  0  0  0  0
    1.1311    2.3385   28.6094 H   0  0  0  0  0  0  0  0  0  0  0  0
   -2.1188   -1.2373   27.3745 H   0  0  0  0  0  0  0  0  0  0  0  0
   -3.1580    3.2760   27.0731 H   0  0  0  0  0  0  0  0  0  0  0  0
   -2.3217    3.0557   25.5185 H   0  0  0  0  0  0  0  0  0  0  0  0
  1  2  1  0
  2  3  1  0
  3  4  2  0
  3  5  2  0
  5  6  1  0
  6  7  1  0
  7  8  1  0
  8  9  2  0
  9 10  1  0
 10 11  2  0
 11 12  1  0
 12 13  2  0
 12 14  1  0
  3 15  1  0
 15 16  1  0
 16 17  1  0
 17 18  2  0
 18 19  1  0
 19 20  2  0
 20 21  1  0
 21 22  2  0
 21 23  1  0
 23 24  1  0
 24 25  1  0
 14  8  1  0
 22 17  1  0
 25 20  1  0
  1 26  1  0
  1 27  1  0
  1 28  1  0
  2 29  1  0
  2 30  1  0
  6 31  1  0
  6 32  1  0
  7 33  1  0
  7 34  1  0
 10 35  1  0
 11 36  1  0
 14 37  1  0
 15 38  1  0
 16 39  1  0
 16 40  1  0
 18 41  1  0
 19 42  1  0
 22 43  1  0
 24 44  1  0
 24 45  1  0
M  END
>  <Energy>  (330) 
-138.26310454774105

>  <compound_id>  (330) 
1646

>  <target_id>  (330) 
1

>  <reference_id>  (330) 
163

>  <inspiration_ids>  (330) 
[13, 163]

>  <energy_score>  (330) 
-56.76591741663485

>  <distance_score>  (330) 
1.392246109422595

>  <path>  (330) 
/opt/xchem-fragalysis-2/maxwin/BulkDock/SCRATCH/505732/C1646-P163/C1646-P163.minimised.mol

>  <scratch_subdir>  (330) 
/opt/xchem-fragalysis-2/maxwin/BulkDock/SCRATCH/505732/C1646-P163

>  <fragmenstein_runtime>  (330) 
4.399162769317627

>  <fragmenstein_outcome>  (330) 
too moved

>  <fragmenstein_mode>  (330) 
expansion

>  <fragmenstein_error>  (330) 


$$$$
C1647-P13
     RDKit          3D

 41 43  0  0  0  0  0  0  0  0999 V2000
   -2.2199   -0.5066   31.1484 C   0  0  0  0  0  0  0  0  0  0  0  0
   -0.9333   -0.9827   31.7629 C   0  0  0  0  0  0  0  0  0  0  0  0
   -0.7493   -2.7396   31.5978 S   0  0  0  0  0  0  0  0  0  0  0  0
    0.4588   -3.1059   32.3053 O   0  0  0  0  0  0  0  0  0  0  0  0
   -2.0321   -3.3310   31.9214 O   0  0  0  0  0  0  0  0  0  0  0  0
   -0.4576   -3.0455   29.9651 N   0  0  0  0  0  0  0  0  0  0  0  0
    0.5563   -2.2183   29.2473 C   0  0  0  0  0  0  0  0  0  0  0  0
    0.0755   -0.9021   28.6670 C   0  0  0  0  0  0  0  0  0  0  0  0
    0.9101    0.2389   28.7725 C   0  0  0  0  0  0  0  0  0  0  0  0
    0.5348    1.4711   28.2278 C   0  0  0  0  0  0  0  0  0  0  0  0
   -0.6708    1.5395   27.5697 C   0  0  0  0  0  0  0  0  0  0  0  0
   -1.4801    0.4388   27.4334 C   0  0  0  0  0  0  0  0  0  0  0  0
   -1.1328   -0.7948   27.9563 C   0  0  0  0  0  0  0  0  0  0  0  0
   -2.6085    0.7267   26.7330 O   0  0  0  0  0  0  0  0  0  0  0  0
   -2.4567    2.1418   26.5115 C   0  0  0  0  0  0  0  0  0  0  0  0
   -1.1889    2.6500   26.9808 O   0  0  0  0  0  0  0  0  0  0  0  0
   -0.2617   -4.5014   29.6534 C   0  0  0  0  0  0  0  0  0  0  0  0
   -0.1482   -5.5448   30.7651 C   0  0  0  0  0  0  0  0  0  0  0  0
   -1.0933   -5.8854   31.5901 N   0  0  0  0  0  0  0  0  0  0  0  0
   -0.6995   -6.5293   32.7457 C   0  0  0  0  0  0  0  0  0  0  0  0
    0.5791   -6.6046   33.1302 C   0  0  0  0  0  0  0  0  0  0  0  0
    1.5141   -6.0736   32.1259 C   0  0  0  0  0  0  0  0  0  0  0  0
    2.6130   -5.6373   32.4173 O   0  0  0  0  0  0  0  0  0  0  0  0
    1.0539   -6.1737   30.8458 N   0  0  0  0  0  0  0  0  0  0  0  0
   -2.0917    0.5146   30.8115 H   0  0  0  0  0  0  0  0  0  0  0  0
   -2.5180   -1.1025   30.2865 H   0  0  0  0  0  0  0  0  0  0  0  0
   -3.0368   -0.5484   31.8749 H   0  0  0  0  0  0  0  0  0  0  0  0
   -0.0499   -0.4952   31.3507 H   0  0  0  0  0  0  0  0  0  0  0  0
   -0.9346   -0.7662   32.8370 H   0  0  0  0  0  0  0  0  0  0  0  0
    0.9689   -2.7636   28.3894 H   0  0  0  0  0  0  0  0  0  0  0  0
    1.4058   -2.0517   29.9220 H   0  0  0  0  0  0  0  0  0  0  0  0
    1.8658    0.1703   29.2898 H   0  0  0  0  0  0  0  0  0  0  0  0
    1.1676    2.3466   28.3186 H   0  0  0  0  0  0  0  0  0  0  0  0
   -1.7844   -1.6520   27.8067 H   0  0  0  0  0  0  0  0  0  0  0  0
   -2.5314    2.3374   25.4361 H   0  0  0  0  0  0  0  0  0  0  0  0
   -3.2656    2.6746   27.0217 H   0  0  0  0  0  0  0  0  0  0  0  0
   -1.0765   -4.7669   28.9891 H   0  0  0  0  0  0  0  0  0  0  0  0
    0.6580   -4.6154   29.0670 H   0  0  0  0  0  0  0  0  0  0  0  0
   -1.4941   -6.8587   33.4102 H   0  0  0  0  0  0  0  0  0  0  0  0
    0.9234   -6.9596   34.0870 H   0  0  0  0  0  0  0  0  0  0  0  0
    0.7932   -7.1527   30.7669 H   0  0  0  0  0  0  0  0  0  0  0  0
  1  2  1  0
  2  3  1  0
  3  4  2  0
  3  5  2  0
  3  6  1  0
  6  7  1  0
  7  8  1  0
  8  9  2  0
  9 10  1  0
 10 11  2  0
 11 12  1  0
 12 13  2  0
 12 14  1  0
 14 15  1  0
 15 16  1  0
  6 17  1  0
 17 18  1  0
 18 19  2  0
 19 20  1  0
 20 21  2  0
 21 22  1  0
 22 23  2  0
 22 24  1  0
 13  8  1  0
 24 18  1  0
 16 11  1  0
  1 25  1  0
  1 26  1  0
  1 27  1  0
  2 28  1  0
  2 29  1  0
  7 30  1  0
  7 31  1  0
  9 32  1  0
 10 33  1  0
 13 34  1  0
 15 35  1  0
 15 36  1  0
 17 37  1  0
 17 38  1  0
 20 39  1  0
 21 40  1  0
 24 41  1  0
M  END
>  <Energy>  (331) 
-30.65164439694373

>  <compound_id>  (331) 
1647

>  <target_id>  (331) 
1

>  <reference_id>  (331) 
13

>  <inspiration_ids>  (331) 
[13, 164]

>  <energy_score>  (331) 
-13.903608577579973

>  <distance_score>  (331) 
1.1332785372528997

>  <path>  (331) 
/opt/xchem-fragalysis-2/maxwin/BulkDock/SCRATCH/505732/C1647-P13/C1647-P13.minimised.mol

>  <scratch_subdir>  (331) 
/opt/xchem-fragalysis-2/maxwin/BulkDock/SCRATCH/505732/C1647-P13

>  <fragmenstein_runtime>  (331) 
4.186498641967773

>  <fragmenstein_outcome>  (331) 
too moved

>  <fragmenstein_mode>  (331) 
expansion

>  <fragmenstein_error>  (331) 


$$$$
C1647-P164
     RDKit          3D

 41 43  0  0  0  0  0  0  0  0999 V2000
   -1.9755   -0.2469   31.4492 C   0  0  0  0  0  0  0  0  0  0  0  0
   -0.7152   -0.9043   31.9234 C   0  0  0  0  0  0  0  0  0  0  0  0
   -0.6993   -2.6545   31.6444 S   0  0  0  0  0  0  0  0  0  0  0  0
    0.4717   -3.1498   32.3374 O   0  0  0  0  0  0  0  0  0  0  0  0
   -2.0241   -3.1677   31.9351 O   0  0  0  0  0  0  0  0  0  0  0  0
   -0.4208   -2.9185   30.0018 N   0  0  0  0  0  0  0  0  0  0  0  0
    0.6216   -2.1021   29.3146 C   0  0  0  0  0  0  0  0  0  0  0  0
    0.1853   -0.7538   28.7718 C   0  0  0  0  0  0  0  0  0  0  0  0
    1.0523    0.3560   28.9298 C   0  0  0  0  0  0  0  0  0  0  0  0
    0.7340    1.6159   28.4118 C   0  0  0  0  0  0  0  0  0  0  0  0
   -0.4454    1.7450   27.7190 C   0  0  0  0  0  0  0  0  0  0  0  0
   -1.2818    0.6752   27.5238 C   0  0  0  0  0  0  0  0  0  0  0  0
   -0.9987   -0.5833   28.0331 C   0  0  0  0  0  0  0  0  0  0  0  0
   -2.3579    1.0201   26.7665 O   0  0  0  0  0  0  0  0  0  0  0  0
   -2.1710    2.4398   26.6199 C   0  0  0  0  0  0  0  0  0  0  0  0
   -0.9021    2.8859   27.1372 O   0  0  0  0  0  0  0  0  0  0  0  0
   -0.2575   -4.3772   29.6550 C   0  0  0  0  0  0  0  0  0  0  0  0
   -0.1257   -5.4329   30.7615 C   0  0  0  0  0  0  0  0  0  0  0  0
   -1.0466   -5.7547   31.6239 N   0  0  0  0  0  0  0  0  0  0  0  0
   -0.6260   -6.4078   32.7641 C   0  0  0  0  0  0  0  0  0  0  0  0
    0.6636   -6.5076   33.1021 C   0  0  0  0  0  0  0  0  0  0  0  0
    1.5675   -5.9858   32.0644 C   0  0  0  0  0  0  0  0  0  0  0  0
    2.6766   -5.5538   32.3194 O   0  0  0  0  0  0  0  0  0  0  0  0
    1.0639   -6.0858   30.8003 N   0  0  0  0  0  0  0  0  0  0  0  0
   -1.8318    0.8260   31.4953 H   0  0  0  0  0  0  0  0  0  0  0  0
   -2.2227   -0.5192   30.4264 H   0  0  0  0  0  0  0  0  0  0  0  0
   -2.8246   -0.5127   32.0859 H   0  0  0  0  0  0  0  0  0  0  0  0
    0.1862   -0.4644   31.4975 H   0  0  0  0  0  0  0  0  0  0  0  0
   -0.6330   -0.7723   33.0089 H   0  0  0  0  0  0  0  0  0  0  0  0
    1.0276   -2.6351   28.4477 H   0  0  0  0  0  0  0  0  0  0  0  0
    1.4712   -1.9821   29.9993 H   0  0  0  0  0  0  0  0  0  0  0  0
    1.9946    0.2420   29.4642 H   0  0  0  0  0  0  0  0  0  0  0  0
    1.3967    2.4642   28.5427 H   0  0  0  0  0  0  0  0  0  0  0  0
   -1.6706   -1.4152   27.8391 H   0  0  0  0  0  0  0  0  0  0  0  0
   -2.2198    2.6906   25.5546 H   0  0  0  0  0  0  0  0  0  0  0  0
   -2.9779    2.9649   27.1418 H   0  0  0  0  0  0  0  0  0  0  0  0
   -1.0937   -4.6229   29.0102 H   0  0  0  0  0  0  0  0  0  0  0  0
    0.6370   -4.5020   29.0327 H   0  0  0  0  0  0  0  0  0  0  0  0
   -1.4034   -6.7139   33.4581 H   0  0  0  0  0  0  0  0  0  0  0  0
    1.0410   -6.8604   34.0470 H   0  0  0  0  0  0  0  0  0  0  0  0
    0.7815   -7.0589   30.7355 H   0  0  0  0  0  0  0  0  0  0  0  0
  1  2  1  0
  2  3  1  0
  3  4  2  0
  3  5  2  0
  3  6  1  0
  6  7  1  0
  7  8  1  0
  8  9  2  0
  9 10  1  0
 10 11  2  0
 11 12  1  0
 12 13  2  0
 12 14  1  0
 14 15  1  0
 15 16  1  0
  6 17  1  0
 17 18  1  0
 18 19  2  0
 19 20  1  0
 20 21  2  0
 21 22  1  0
 22 23  2  0
 22 24  1  0
 13  8  1  0
 24 18  1  0
 16 11  1  0
  1 25  1  0
  1 26  1  0
  1 27  1  0
  2 28  1  0
  2 29  1  0
  7 30  1  0
  7 31  1  0
  9 32  1  0
 10 33  1  0
 13 34  1  0
 15 35  1  0
 15 36  1  0
 17 37  1  0
 17 38  1  0
 20 39  1  0
 21 40  1  0
 24 41  1  0
M  END
>  <Energy>  (332) 
-30.292100404779351

>  <compound_id>  (332) 
1647

>  <target_id>  (332) 
1

>  <reference_id>  (332) 
164

>  <inspiration_ids>  (332) 
[13, 164]

>  <energy_score>  (332) 
-13.544064585415953

>  <distance_score>  (332) 
1.181111535248521

>  <path>  (332) 
/opt/xchem-fragalysis-2/maxwin/BulkDock/SCRATCH/505732/C1647-P164/C1647-P164.minimised.mol

>  <scratch_subdir>  (332) 
/opt/xchem-fragalysis-2/maxwin/BulkDock/SCRATCH/505732/C1647-P164

>  <fragmenstein_runtime>  (332) 
3.87386155128479

>  <fragmenstein_outcome>  (332) 
too moved

>  <fragmenstein_mode>  (332) 
expansion

>  <fragmenstein_error>  (332) 


$$$$
C1647-P13
     RDKit          3D

 41 43  0  0  0  0  0  0  0  0999 V2000
   -2.2872   -0.6667   31.2049 C   0  0  0  0  0  0  0  0  0  0  0  0
   -0.9263   -1.0081   31.7420 C   0  0  0  0  0  0  0  0  0  0  0  0
   -0.5682   -2.7386   31.5675 S   0  0  0  0  0  0  0  0  0  0  0  0
    0.7509   -2.9707   32.1209 O   0  0  0  0  0  0  0  0  0  0  0  0
   -1.7208   -3.4788   32.0364 O   0  0  0  0  0  0  0  0  0  0  0  0
   -0.4265   -3.0515   29.9211 N   0  0  0  0  0  0  0  0  0  0  0  0
    0.5217   -2.2327   29.1106 C   0  0  0  0  0  0  0  0  0  0  0  0
    0.0325   -0.8924   28.6076 C   0  0  0  0  0  0  0  0  0  0  0  0
    0.8716    0.2424   28.7406 C   0  0  0  0  0  0  0  0  0  0  0  0
    0.4977    1.4897   28.2310 C   0  0  0  0  0  0  0  0  0  0  0  0
   -0.7093    1.5784   27.5781 C   0  0  0  0  0  0  0  0  0  0  0  0
   -1.5263    0.4861   27.4231 C   0  0  0  0  0  0  0  0  0  0  0  0
   -1.1853   -0.7597   27.9188 C   0  0  0  0  0  0  0  0  0  0  0  0
   -2.6507    0.7922   26.7244 O   0  0  0  0  0  0  0  0  0  0  0  0
   -2.4845    2.2078   26.5164 C   0  0  0  0  0  0  0  0  0  0  0  0
   -1.2191    2.7019   27.0072 O   0  0  0  0  0  0  0  0  0  0  0  0
   -0.2708   -4.5118   29.5922 C   0  0  0  0  0  0  0  0  0  0  0  0
   -0.1857   -5.5529   30.7109 C   0  0  0  0  0  0  0  0  0  0  0  0
   -1.1496   -6.3493   31.0544 N   0  0  0  0  0  0  0  0  0  0  0  0
   -0.9777   -7.1100   32.1781 C   0  0  0  0  0  0  0  0  0  0  0  0
    0.1194   -7.1161   32.9298 C   0  0  0  0  0  0  0  0  0  0  0  0
    1.2365   -6.3197   32.4449 C   0  0  0  0  0  0  0  0  0  0  0  0
    2.3201   -6.3402   33.0040 O   0  0  0  0  0  0  0  0  0  0  0  0
    1.0252   -5.5921   31.3306 N   0  0  0  0  0  0  0  0  0  0  0  0
   -2.3290    0.3938   30.9927 H   0  0  0  0  0  0  0  0  0  0  0  0
   -3.0699   -0.9157   31.9281 H   0  0  0  0  0  0  0  0  0  0  0  0
   -2.5087   -1.2011   30.2823 H   0  0  0  0  0  0  0  0  0  0  0  0
   -0.1259   -0.4376   31.2716 H   0  0  0  0  0  0  0  0  0  0  0  0
   -0.8831   -0.7849   32.8136 H   0  0  0  0  0  0  0  0  0  0  0  0
    0.8183   -2.7800   28.2071 H   0  0  0  0  0  0  0  0  0  0  0  0
    1.4485   -2.1088   29.6854 H   0  0  0  0  0  0  0  0  0  0  0  0
    1.8332    0.1567   29.2440 H   0  0  0  0  0  0  0  0  0  0  0  0
    1.1356    2.3599   28.3369 H   0  0  0  0  0  0  0  0  0  0  0  0
   -1.8400   -1.6108   27.7479 H   0  0  0  0  0  0  0  0  0  0  0  0
   -2.5428    2.4122   25.4415 H   0  0  0  0  0  0  0  0  0  0  0  0
   -3.2959    2.7433   27.0193 H   0  0  0  0  0  0  0  0  0  0  0  0
   -1.0864   -4.7475   28.9178 H   0  0  0  0  0  0  0  0  0  0  0  0
    0.6635   -4.6455   29.0322 H   0  0  0  0  0  0  0  0  0  0  0  0
   -1.8323   -7.7107   32.4789 H   0  0  0  0  0  0  0  0  0  0  0  0
    0.2174   -7.6859   33.8402 H   0  0  0  0  0  0  0  0  0  0  0  0
    1.7217   -4.8806   31.1559 H   0  0  0  0  0  0  0  0  0  0  0  0
  1  2  1  0
  2  3  1  0
  3  4  2  0
  3  5  2  0
  3  6  1  0
  6  7  1  0
  7  8  1  0
  8  9  2  0
  9 10  1  0
 10 11  2  0
 11 12  1  0
 12 13  2  0
 12 14  1  0
 14 15  1  0
 15 16  1  0
  6 17  1  0
 17 18  1  0
 18 19  2  0
 19 20  1  0
 20 21  2  0
 21 22  1  0
 22 23  2  0
 22 24  1  0
 13  8  1  0
 24 18  1  0
 16 11  1  0
  1 25  1  0
  1 26  1  0
  1 27  1  0
  2 28  1  0
  2 29  1  0
  7 30  1  0
  7 31  1  0
  9 32  1  0
 10 33  1  0
 13 34  1  0
 15 35  1  0
 15 36  1  0
 17 37  1  0
 17 38  1  0
 20 39  1  0
 21 40  1  0
 24 41  1  0
M  END
>  <Energy>  (333) 
-68.68486053603506

>  <compound_id>  (333) 
1647

>  <target_id>  (333) 
1

>  <reference_id>  (333) 
13

>  <inspiration_ids>  (333) 
[13, 165]

>  <energy_score>  (333) 
-51.9368247166729

>  <distance_score>  (333) 
1.5126264675054253

>  <path>  (333) 
/opt/xchem-fragalysis-2/maxwin/BulkDock/SCRATCH/505732/C1647-P13/C1647-P13.minimised.mol

>  <scratch_subdir>  (333) 
/opt/xchem-fragalysis-2/maxwin/BulkDock/SCRATCH/505732/C1647-P13

>  <fragmenstein_runtime>  (333) 
4.2440245151519775

>  <fragmenstein_outcome>  (333) 
too moved

>  <fragmenstein_mode>  (333) 
expansion

>  <fragmenstein_error>  (333) 


$$$$
C1647-P165
     RDKit          3D

 41 43  0  0  0  0  0  0  0  0999 V2000
   -2.2148   -0.5730   31.5374 C   0  0  0  0  0  0  0  0  0  0  0  0
   -0.8273   -1.0217   31.8891 C   0  0  0  0  0  0  0  0  0  0  0  0
   -0.5557   -2.7502   31.6032 S   0  0  0  0  0  0  0  0  0  0  0  0
    0.7474   -3.0567   32.1601 O   0  0  0  0  0  0  0  0  0  0  0  0
   -1.7399   -3.4664   32.0300 O   0  0  0  0  0  0  0  0  0  0  0  0
   -0.4037   -3.0143   29.9502 N   0  0  0  0  0  0  0  0  0  0  0  0
    0.5661   -2.1801   29.1830 C   0  0  0  0  0  0  0  0  0  0  0  0
    0.1109   -0.8148   28.7137 C   0  0  0  0  0  0  0  0  0  0  0  0
    0.9690    0.2970   28.9076 C   0  0  0  0  0  0  0  0  0  0  0  0
    0.6540    1.5634   28.4038 C   0  0  0  0  0  0  0  0  0  0  0  0
   -0.5102    1.6958   27.6863 C   0  0  0  0  0  0  0  0  0  0  0  0
   -1.3424    0.6272   27.4680 C   0  0  0  0  0  0  0  0  0  0  0  0
   -1.0695   -0.6346   27.9737 C   0  0  0  0  0  0  0  0  0  0  0  0
   -2.3996    0.9727   26.6853 O   0  0  0  0  0  0  0  0  0  0  0  0
   -2.1976    2.3888   26.5270 C   0  0  0  0  0  0  0  0  0  0  0  0
   -0.9528    2.8391   27.0986 O   0  0  0  0  0  0  0  0  0  0  0  0
   -0.2154   -4.4807   29.6054 C   0  0  0  0  0  0  0  0  0  0  0  0
   -0.0966   -5.5229   30.7307 C   0  0  0  0  0  0  0  0  0  0  0  0
   -1.0679   -6.2721   31.1505 N   0  0  0  0  0  0  0  0  0  0  0  0
   -0.8746   -7.0083   32.2848 C   0  0  0  0  0  0  0  0  0  0  0  0
    0.2477   -7.0105   32.9968 C   0  0  0  0  0  0  0  0  0  0  0  0
    1.3594   -6.2530   32.4422 C   0  0  0  0  0  0  0  0  0  0  0  0
    2.4467   -6.2332   32.9938 O   0  0  0  0  0  0  0  0  0  0  0  0
    1.1447   -5.6034   31.2800 N   0  0  0  0  0  0  0  0  0  0  0  0
   -2.3546    0.4244   31.9397 H   0  0  0  0  0  0  0  0  0  0  0  0
   -2.9814   -1.2136   31.9826 H   0  0  0  0  0  0  0  0  0  0  0  0
   -2.3700   -0.5495   30.4596 H   0  0  0  0  0  0  0  0  0  0  0  0
   -0.0475   -0.4358   31.4053 H   0  0  0  0  0  0  0  0  0  0  0  0
   -0.6829   -0.8896   32.9687 H   0  0  0  0  0  0  0  0  0  0  0  0
    0.8706   -2.7029   28.2685 H   0  0  0  0  0  0  0  0  0  0  0  0
    1.4860   -2.0902   29.7752 H   0  0  0  0  0  0  0  0  0  0  0  0
    1.9068    0.1779   29.4484 H   0  0  0  0  0  0  0  0  0  0  0  0
    1.3117    2.4122   28.5551 H   0  0  0  0  0  0  0  0  0  0  0  0
   -1.7340   -1.4663   27.7531 H   0  0  0  0  0  0  0  0  0  0  0  0
   -2.1932    2.6224   25.4564 H   0  0  0  0  0  0  0  0  0  0  0  0
   -3.0257    2.9265   26.9984 H   0  0  0  0  0  0  0  0  0  0  0  0
   -1.0310   -4.7355   28.9392 H   0  0  0  0  0  0  0  0  0  0  0  0
    0.7098   -4.5950   29.0259 H   0  0  0  0  0  0  0  0  0  0  0  0
   -1.7325   -7.5773   32.6342 H   0  0  0  0  0  0  0  0  0  0  0  0
    0.3690   -7.5454   33.9249 H   0  0  0  0  0  0  0  0  0  0  0  0
    1.8424   -4.9023   31.0730 H   0  0  0  0  0  0  0  0  0  0  0  0
  1  2  1  0
  2  3  1  0
  3  4  2  0
  3  5  2  0
  3  6  1  0
  6  7  1  0
  7  8  1  0
  8  9  2  0
  9 10  1  0
 10 11  2  0
 11 12  1  0
 12 13  2  0
 12 14  1  0
 14 15  1  0
 15 16  1  0
  6 17  1  0
 17 18  1  0
 18 19  2  0
 19 20  1  0
 20 21  2  0
 21 22  1  0
 22 23  2  0
 22 24  1  0
 13  8  1  0
 24 18  1  0
 16 11  1  0
  1 25  1  0
  1 26  1  0
  1 27  1  0
  2 28  1  0
  2 29  1  0
  7 30  1  0
  7 31  1  0
  9 32  1  0
 10 33  1  0
 13 34  1  0
 15 35  1  0
 15 36  1  0
 17 37  1  0
 17 38  1  0
 20 39  1  0
 21 40  1  0
 24 41  1  0
M  END
>  <Energy>  (334) 
-65.587146988548284

>  <compound_id>  (334) 
1647

>  <target_id>  (334) 
1

>  <reference_id>  (334) 
165

>  <inspiration_ids>  (334) 
[13, 165]

>  <energy_score>  (334) 
-48.83911116918347

>  <distance_score>  (334) 
1.5181526053627723

>  <path>  (334) 
/opt/xchem-fragalysis-2/maxwin/BulkDock/SCRATCH/505732/C1647-P165/C1647-P165.minimised.mol

>  <scratch_subdir>  (334) 
/opt/xchem-fragalysis-2/maxwin/BulkDock/SCRATCH/505732/C1647-P165

>  <fragmenstein_runtime>  (334) 
5.006513833999634

>  <fragmenstein_outcome>  (334) 
too moved

>  <fragmenstein_mode>  (334) 
expansion

>  <fragmenstein_error>  (334) 


$$$$
C1647-P13
     RDKit          3D

 41 43  0  0  0  0  0  0  0  0999 V2000
   -1.7567    0.1508   32.7340 C   0  0  0  0  0  0  0  0  0  0  0  0
   -1.1407   -0.9071   33.6147 C   0  0  0  0  0  0  0  0  0  0  0  0
   -0.5066   -2.2350   32.6485 S   0  0  0  0  0  0  0  0  0  0  0  0
    0.8610   -1.9619   32.2700 O   0  0  0  0  0  0  0  0  0  0  0  0
   -1.5217   -2.5515   31.6590 O   0  0  0  0  0  0  0  0  0  0  0  0
   -0.4718   -3.5184   33.7486 N   0  0  0  0  0  0  0  0  0  0  0  0
   -0.6332   -4.7406   33.0044 C   0  0  0  0  0  0  0  0  0  0  0  0
    0.3967   -4.9356   31.7964 C   0  0  0  0  0  0  0  0  0  0  0  0
    1.5729   -5.4943   32.2476 C   0  0  0  0  0  0  0  0  0  0  0  0
    1.4061   -6.8077   32.6011 C   0  0  0  0  0  0  0  0  0  0  0  0
    0.2703   -7.4411   32.1291 C   0  0  0  0  0  0  0  0  0  0  0  0
   -0.4909   -6.8961   31.1364 C   0  0  0  0  0  0  0  0  0  0  0  0
   -0.2314   -5.6164   30.7637 C   0  0  0  0  0  0  0  0  0  0  0  0
   -1.6097   -7.6079   30.8897 O   0  0  0  0  0  0  0  0  0  0  0  0
   -1.5487   -8.5518   31.9747 C   0  0  0  0  0  0  0  0  0  0  0  0
   -0.3429   -8.4760   32.7268 O   0  0  0  0  0  0  0  0  0  0  0  0
    0.4536   -3.5880   34.9075 C   0  0  0  0  0  0  0  0  0  0  0  0
    0.6048   -4.9076   35.7082 C   0  0  0  0  0  0  0  0  0  0  0  0
   -0.2775   -5.2913   36.5800 N   0  0  0  0  0  0  0  0  0  0  0  0
   -0.0177   -6.4531   37.2689 C   0  0  0  0  0  0  0  0  0  0  0  0
    0.9940   -7.2934   37.0332 C   0  0  0  0  0  0  0  0  0  0  0  0
    1.9276   -6.9160   35.9718 C   0  0  0  0  0  0  0  0  0  0  0  0
    2.7757   -7.6935   35.5434 O   0  0  0  0  0  0  0  0  0  0  0  0
    1.7445   -5.6486   35.4769 N   0  0  0  0  0  0  0  0  0  0  0  0
   -2.5804   -0.2473   32.1339 H   0  0  0  0  0  0  0  0  0  0  0  0
   -1.0130    0.5798   32.0556 H   0  0  0  0  0  0  0  0  0  0  0  0
   -2.1569    0.9387   33.3767 H   0  0  0  0  0  0  0  0  0  0  0  0
   -0.3281   -0.5031   34.2244 H   0  0  0  0  0  0  0  0  0  0  0  0
   -1.9125   -1.3170   34.2742 H   0  0  0  0  0  0  0  0  0  0  0  0
   -0.6651   -5.6040   33.6765 H   0  0  0  0  0  0  0  0  0  0  0  0
   -1.6356   -4.7294   32.5812 H   0  0  0  0  0  0  0  0  0  0  0  0
    2.3693   -4.8783   32.6459 H   0  0  0  0  0  0  0  0  0  0  0  0
    2.0536   -7.2539   33.3300 H   0  0  0  0  0  0  0  0  0  0  0  0
   -0.8353   -5.0613   30.0612 H   0  0  0  0  0  0  0  0  0  0  0  0
   -1.6051   -9.5509   31.5434 H   0  0  0  0  0  0  0  0  0  0  0  0
   -2.3976   -8.3903   32.6404 H   0  0  0  0  0  0  0  0  0  0  0  0
    1.4541   -3.2940   34.5679 H   0  0  0  0  0  0  0  0  0  0  0  0
    0.1252   -2.8304   35.6297 H   0  0  0  0  0  0  0  0  0  0  0  0
   -0.7228   -6.6796   38.0628 H   0  0  0  0  0  0  0  0  0  0  0  0
    1.1512   -8.2162   37.5717 H   0  0  0  0  0  0  0  0  0  0  0  0
    2.4076   -5.3571   34.7772 H   0  0  0  0  0  0  0  0  0  0  0  0
  1  2  1  0
  2  3  1  0
  3  4  2  0
  3  5  2  0
  3  6  1  0
  6  7  1  0
  7  8  1  0
  8  9  2  0
  9 10  1  0
 10 11  2  0
 11 12  1  0
 12 13  2  0
 12 14  1  0
 14 15  1  0
 15 16  1  0
  6 17  1  0
 17 18  1  0
 18 19  2  0
 19 20  1  0
 20 21  2  0
 21 22  1  0
 22 23  2  0
 22 24  1  0
 13  8  1  0
 24 18  1  0
 16 11  1  0
  1 25  1  0
  1 26  1  0
  1 27  1  0
  2 28  1  0
  2 29  1  0
  7 30  1  0
  7 31  1  0
  9 32  1  0
 10 33  1  0
 13 34  1  0
 15 35  1  0
 15 36  1  0
 17 37  1  0
 17 38  1  0
 20 39  1  0
 21 40  1  0
 24 41  1  0
M  END
>  <Energy>  (335) 
17.852206541821644

>  <compound_id>  (335) 
1647

>  <target_id>  (335) 
1

>  <reference_id>  (335) 
13

>  <inspiration_ids>  (335) 
[13, 166]

>  <energy_score>  (335) 
32.422021193148225

>  <distance_score>  (335) 
1.5639922289814792

>  <path>  (335) 
/opt/xchem-fragalysis-2/maxwin/BulkDock/SCRATCH/505732/C1647-P13/C1647-P13.minimised.mol

>  <scratch_subdir>  (335) 
/opt/xchem-fragalysis-2/maxwin/BulkDock/SCRATCH/505732/C1647-P13

>  <fragmenstein_runtime>  (335) 
2.2542459964752197

>  <fragmenstein_outcome>  (335) 
too moved

>  <fragmenstein_mode>  (335) 
expansion

>  <fragmenstein_error>  (335) 


$$$$
C1647-P166
     RDKit          3D

 41 43  0  0  0  0  0  0  0  0999 V2000
   -1.9486   -0.4108   31.9849 C   0  0  0  0  0  0  0  0  0  0  0  0
   -1.0566   -1.2119   32.9189 C   0  0  0  0  0  0  0  0  0  0  0  0
   -0.6634   -2.8041   32.2219 S   0  0  0  0  0  0  0  0  0  0  0  0
    0.1339   -2.5543   31.0404 O   0  0  0  0  0  0  0  0  0  0  0  0
   -1.8692   -3.6013   32.1413 O   0  0  0  0  0  0  0  0  0  0  0  0
    0.4227   -3.4929   33.4269 N   0  0  0  0  0  0  0  0  0  0  0  0
    1.4612   -4.3276   32.7202 C   0  0  0  0  0  0  0  0  0  0  0  0
    1.0118   -5.7356   32.4905 C   0  0  0  0  0  0  0  0  0  0  0  0
    1.3119   -6.6442   33.5073 C   0  0  0  0  0  0  0  0  0  0  0  0
    0.3479   -7.5308   33.9289 C   0  0  0  0  0  0  0  0  0  0  0  0
   -0.7136   -7.6894   33.0951 C   0  0  0  0  0  0  0  0  0  0  0  0
   -0.7882   -7.0669   31.8739 C   0  0  0  0  0  0  0  0  0  0  0  0
    0.0458   -6.0411   31.5393 C   0  0  0  0  0  0  0  0  0  0  0  0
   -1.8243   -7.5283   31.1494 O   0  0  0  0  0  0  0  0  0  0  0  0
   -2.3044   -8.5441   32.0494 C   0  0  0  0  0  0  0  0  0  0  0  0
   -1.7822   -8.4629   33.3604 O   0  0  0  0  0  0  0  0  0  0  0  0
   -0.3094   -4.0975   34.6342 C   0  0  0  0  0  0  0  0  0  0  0  0
    0.2946   -4.9372   35.7815 C   0  0  0  0  0  0  0  0  0  0  0  0
   -0.5106   -5.5549   36.5981 N   0  0  0  0  0  0  0  0  0  0  0  0
    0.0447   -6.3817   37.5443 C   0  0  0  0  0  0  0  0  0  0  0  0
    1.3199   -6.7721   37.5621 C   0  0  0  0  0  0  0  0  0  0  0  0
    2.1697   -6.1822   36.5286 C   0  0  0  0  0  0  0  0  0  0  0  0
    3.2097   -6.7283   36.1709 O   0  0  0  0  0  0  0  0  0  0  0  0
    1.6508   -5.0544   35.9278 N   0  0  0  0  0  0  0  0  0  0  0  0
   -2.8869   -0.9387   31.7885 H   0  0  0  0  0  0  0  0  0  0  0  0
   -1.4574   -0.2296   31.0237 H   0  0  0  0  0  0  0  0  0  0  0  0
   -2.1879    0.5559   32.4360 H   0  0  0  0  0  0  0  0  0  0  0  0
   -0.1151   -0.6837   33.0948 H   0  0  0  0  0  0  0  0  0  0  0  0
   -1.5659   -1.3798   33.8715 H   0  0  0  0  0  0  0  0  0  0  0  0
    1.7923   -3.8879   31.7749 H   0  0  0  0  0  0  0  0  0  0  0  0
    2.3798   -4.3002   33.3160 H   0  0  0  0  0  0  0  0  0  0  0  0
    2.2312   -6.5331   34.0622 H   0  0  0  0  0  0  0  0  0  0  0  0
    0.4196   -8.0829   34.8589 H   0  0  0  0  0  0  0  0  0  0  0  0
   -0.1587   -5.4143   30.6784 H   0  0  0  0  0  0  0  0  0  0  0  0
   -3.3868   -8.4833   32.0676 H   0  0  0  0  0  0  0  0  0  0  0  0
   -1.9886   -9.5098   31.6477 H   0  0  0  0  0  0  0  0  0  0  0  0
   -0.7827   -3.2472   35.1435 H   0  0  0  0  0  0  0  0  0  0  0  0
   -1.1277   -4.7150   34.2436 H   0  0  0  0  0  0  0  0  0  0  0  0
   -0.6428   -6.7714   38.2880 H   0  0  0  0  0  0  0  0  0  0  0  0
    1.7301   -7.4862   38.2596 H   0  0  0  0  0  0  0  0  0  0  0  0
    2.2474   -4.6169   35.2477 H   0  0  0  0  0  0  0  0  0  0  0  0
  1  2  1  0
  2  3  1  0
  3  4  2  0
  3  5  2  0
  3  6  1  0
  6  7  1  0
  7  8  1  0
  8  9  2  0
  9 10  1  0
 10 11  2  0
 11 12  1  0
 12 13  2  0
 12 14  1  0
 14 15  1  0
 15 16  1  0
  6 17  1  0
 17 18  1  0
 18 19  2  0
 19 20  1  0
 20 21  2  0
 21 22  1  0
 22 23  2  0
 22 24  1  0
 13  8  1  0
 24 18  1  0
 16 11  1  0
  1 25  1  0
  1 26  1  0
  1 27  1  0
  2 28  1  0
  2 29  1  0
  7 30  1  0
  7 31  1  0
  9 32  1  0
 10 33  1  0
 13 34  1  0
 15 35  1  0
 15 36  1  0
 17 37  1  0
 17 38  1  0
 20 39  1  0
 21 40  1  0
 24 41  1  0
M  END
>  <Energy>  (336) 
-33.060017712205216

>  <compound_id>  (336) 
1647

>  <target_id>  (336) 
1

>  <reference_id>  (336) 
166

>  <inspiration_ids>  (336) 
[13, 166]

>  <energy_score>  (336) 
-18.490203060877903

>  <distance_score>  (336) 
1.6735644205235198

>  <path>  (336) 
/opt/xchem-fragalysis-2/maxwin/BulkDock/SCRATCH/505732/C1647-P166/C1647-P166.minimised.mol

>  <scratch_subdir>  (336) 
/opt/xchem-fragalysis-2/maxwin/BulkDock/SCRATCH/505732/C1647-P166

>  <fragmenstein_runtime>  (336) 
1.9512007236480713

>  <fragmenstein_outcome>  (336) 
too moved

>  <fragmenstein_mode>  (336) 
expansion

>  <fragmenstein_error>  (336) 


$$$$
C1648-P13
     RDKit          3D

 44 46  0  0  0  0  0  0  0  0999 V2000
   -0.7128   -0.8694   31.3795 C   0  0  0  0  0  0  0  0  0  0  0  0
   -0.0755   -2.1065   31.9935 C   0  0  0  0  0  0  0  0  0  0  0  0
   -1.2414   -2.9707   33.0410 S   0  0  0  0  0  0  0  0  0  0  0  0
   -1.6076   -2.0380   34.0852 O   0  0  0  0  0  0  0  0  0  0  0  0
   -2.2283   -3.5723   32.1640 O   0  0  0  0  0  0  0  0  0  0  0  0
   -0.3097   -4.2050   33.7438 N   0  0  0  0  0  0  0  0  0  0  0  0
   -0.1522   -5.4389   32.9528 C   0  0  0  0  0  0  0  0  0  0  0  0
    1.0195   -5.3336   32.0123 C   0  0  0  0  0  0  0  0  0  0  0  0
    2.1809   -4.6094   32.3861 C   0  0  0  0  0  0  0  0  0  0  0  0
    3.2406   -4.4350   31.5022 C   0  0  0  0  0  0  0  0  0  0  0  0
    3.1297   -5.0399   30.2761 C   0  0  0  0  0  0  0  0  0  0  0  0
    2.0361   -5.7955   29.9289 C   0  0  0  0  0  0  0  0  0  0  0  0
    0.9593   -5.9590   30.7648 C   0  0  0  0  0  0  0  0  0  0  0  0
    2.2067   -6.4092   28.7300 O   0  0  0  0  0  0  0  0  0  0  0  0
    3.4210   -5.7871   28.2790 C   0  0  0  0  0  0  0  0  0  0  0  0
    4.0843   -5.0403   29.3112 O   0  0  0  0  0  0  0  0  0  0  0  0
   -0.5009   -4.4146   35.2207 C   0  0  0  0  0  0  0  0  0  0  0  0
    0.3527   -5.4744   35.9361 C   0  0  0  0  0  0  0  0  0  0  0  0
    1.5801   -5.7785   35.4526 N   0  0  0  0  0  0  0  0  0  0  0  0
    2.2969   -6.7174   36.1071 C   0  0  0  0  0  0  0  0  0  0  0  0
    3.6455   -7.0681   35.5562 C   0  0  0  0  0  0  0  0  0  0  0  0
    1.8342   -7.3418   37.2435 C   0  0  0  0  0  0  0  0  0  0  0  0
    0.5888   -6.9511   37.6633 C   0  0  0  0  0  0  0  0  0  0  0  0
    0.0371   -7.4784   38.7945 O   0  0  0  0  0  0  0  0  0  0  0  0
   -0.1731   -6.0468   37.0351 N   0  0  0  0  0  0  0  0  0  0  0  0
   -1.0337   -0.1634   32.1521 H   0  0  0  0  0  0  0  0  0  0  0  0
    0.0028   -0.3585   30.7281 H   0  0  0  0  0  0  0  0  0  0  0  0
   -1.5915   -1.1335   30.7821 H   0  0  0  0  0  0  0  0  0  0  0  0
    0.7828   -1.8243   32.6092 H   0  0  0  0  0  0  0  0  0  0  0  0
    0.2363   -2.7838   31.1967 H   0  0  0  0  0  0  0  0  0  0  0  0
   -0.0124   -6.3295   33.5711 H   0  0  0  0  0  0  0  0  0  0  0  0
   -1.0686   -5.6501   32.3917 H   0  0  0  0  0  0  0  0  0  0  0  0
    2.2448   -4.1520   33.3730 H   0  0  0  0  0  0  0  0  0  0  0  0
    4.1208   -3.8656   31.7764 H   0  0  0  0  0  0  0  0  0  0  0  0
    0.1046   -6.5527   30.4613 H   0  0  0  0  0  0  0  0  0  0  0  0
    4.1015   -6.5670   27.9209 H   0  0  0  0  0  0  0  0  0  0  0  0
    3.1904   -5.1160   27.4422 H   0  0  0  0  0  0  0  0  0  0  0  0
   -1.5439   -4.6687   35.4143 H   0  0  0  0  0  0  0  0  0  0  0  0
   -0.2769   -3.4707   35.7312 H   0  0  0  0  0  0  0  0  0  0  0  0
    3.6866   -8.1322   35.3045 H   0  0  0  0  0  0  0  0  0  0  0  0
    3.8558   -6.4916   34.6500 H   0  0  0  0  0  0  0  0  0  0  0  0
    4.4248   -6.8423   36.2907 H   0  0  0  0  0  0  0  0  0  0  0  0
    2.4217   -8.0813   37.7679 H   0  0  0  0  0  0  0  0  0  0  0  0
    0.6737   -8.0827   39.2036 H   0  0  0  0  0  0  0  0  0  0  0  0
  1  2  1  0
  2  3  1  0
  3  4  2  0
  3  5  2  0
  3  6  1  0
  6  7  1  0
  7  8  1  0
  8  9  2  0
  9 10  1  0
 10 11  2  0
 11 12  1  0
 12 13  2  0
 12 14  1  0
 14 15  1  0
 15 16  1  0
  6 17  1  0
 17 18  1  0
 18 19  2  0
 19 20  1  0
 20 21  1  0
 20 22  2  0
 22 23  1  0
 23 24  1  0
 23 25  2  0
 13  8  1  0
 25 18  1  0
 16 11  1  0
  1 26  1  0
  1 27  1  0
  1 28  1  0
  2 29  1  0
  2 30  1  0
  7 31  1  0
  7 32  1  0
  9 33  1  0
 10 34  1  0
 13 35  1  0
 15 36  1  0
 15 37  1  0
 17 38  1  0
 17 39  1  0
 21 40  1  0
 21 41  1  0
 21 42  1  0
 22 43  1  0
 24 44  1  0
M  END
>  <Energy>  (337) 
-68.303518322109682

>  <compound_id>  (337) 
1648

>  <target_id>  (337) 
1

>  <reference_id>  (337) 
13

>  <inspiration_ids>  (337) 
[13, 167]

>  <energy_score>  (337) 
-69.73732539246902

>  <distance_score>  (337) 
3.061275302702958

>  <path>  (337) 
/opt/xchem-fragalysis-2/maxwin/BulkDock/SCRATCH/505732/C1648-P13/C1648-P13.minimised.mol

>  <scratch_subdir>  (337) 
/opt/xchem-fragalysis-2/maxwin/BulkDock/SCRATCH/505732/C1648-P13

>  <fragmenstein_runtime>  (337) 
3.7985658645629883

>  <fragmenstein_outcome>  (337) 
too moved

>  <fragmenstein_mode>  (337) 
expansion

>  <fragmenstein_error>  (337) 


$$$$
C1648-P167
     RDKit          3D

 44 46  0  0  0  0  0  0  0  0999 V2000
   -1.8260   -0.6213   32.0823 C   0  0  0  0  0  0  0  0  0  0  0  0
   -0.9443   -1.4556   33.0020 C   0  0  0  0  0  0  0  0  0  0  0  0
   -0.4068   -2.9541   32.1959 S   0  0  0  0  0  0  0  0  0  0  0  0
    0.4274   -2.5425   31.0855 O   0  0  0  0  0  0  0  0  0  0  0  0
   -1.5597   -3.7922   31.9470 O   0  0  0  0  0  0  0  0  0  0  0  0
    0.6510   -3.6995   33.3541 N   0  0  0  0  0  0  0  0  0  0  0  0
    1.7312   -4.4773   32.6491 C   0  0  0  0  0  0  0  0  0  0  0  0
    1.2701   -5.8667   32.2970 C   0  0  0  0  0  0  0  0  0  0  0  0
    1.5173   -6.8070   33.2957 C   0  0  0  0  0  0  0  0  0  0  0  0
    0.5262   -7.6709   33.6958 C   0  0  0  0  0  0  0  0  0  0  0  0
   -0.5129   -7.8021   32.8365 C   0  0  0  0  0  0  0  0  0  0  0  0
   -0.5473   -7.1624   31.6229 C   0  0  0  0  0  0  0  0  0  0  0  0
    0.3110   -6.1356   31.3255 C   0  0  0  0  0  0  0  0  0  0  0  0
   -1.5704   -7.6197   30.8726 O   0  0  0  0  0  0  0  0  0  0  0  0
   -2.0907   -8.6350   31.7574 C   0  0  0  0  0  0  0  0  0  0  0  0
   -1.5827   -8.5792   33.0703 O   0  0  0  0  0  0  0  0  0  0  0  0
   -0.0454   -4.4016   34.5661 C   0  0  0  0  0  0  0  0  0  0  0  0
    0.6837   -5.2135   35.7078 C   0  0  0  0  0  0  0  0  0  0  0  0
    2.0203   -5.4437   35.6583 N   0  0  0  0  0  0  0  0  0  0  0  0
    2.5323   -6.4507   36.4324 C   0  0  0  0  0  0  0  0  0  0  0  0
    3.9122   -6.9610   36.1157 C   0  0  0  0  0  0  0  0  0  0  0  0
    1.7872   -7.1340   37.3557 C   0  0  0  0  0  0  0  0  0  0  0  0
    0.4739   -6.7740   37.3957 C   0  0  0  0  0  0  0  0  0  0  0  0
   -0.3253   -7.4726   38.2532 O   0  0  0  0  0  0  0  0  0  0  0  0
   -0.1160   -5.8570   36.5998 N   0  0  0  0  0  0  0  0  0  0  0  0
   -2.7155   -1.1813   31.7770 H   0  0  0  0  0  0  0  0  0  0  0  0
   -2.1530    0.2870   32.5965 H   0  0  0  0  0  0  0  0  0  0  0  0
   -1.2871   -0.3272   31.1762 H   0  0  0  0  0  0  0  0  0  0  0  0
   -1.5010   -1.7403   33.8987 H   0  0  0  0  0  0  0  0  0  0  0  0
   -0.0508   -0.8935   33.2879 H   0  0  0  0  0  0  0  0  0  0  0  0
    2.6129   -4.4981   33.3013 H   0  0  0  0  0  0  0  0  0  0  0  0
    2.0974   -3.9735   31.7498 H   0  0  0  0  0  0  0  0  0  0  0  0
    2.4163   -6.7099   33.8846 H   0  0  0  0  0  0  0  0  0  0  0  0
    0.5653   -8.2192   34.6280 H   0  0  0  0  0  0  0  0  0  0  0  0
    0.1275   -5.4801   30.4821 H   0  0  0  0  0  0  0  0  0  0  0  0
   -3.1736   -8.5538   31.7717 H   0  0  0  0  0  0  0  0  0  0  0  0
   -1.7998   -9.6006   31.3375 H   0  0  0  0  0  0  0  0  0  0  0  0
   -0.6019   -3.6163   35.0907 H   0  0  0  0  0  0  0  0  0  0  0  0
   -0.7603   -5.1087   34.1432 H   0  0  0  0  0  0  0  0  0  0  0  0
    4.4305   -6.2709   35.4422 H   0  0  0  0  0  0  0  0  0  0  0  0
    4.5061   -7.0482   37.0310 H   0  0  0  0  0  0  0  0  0  0  0  0
    3.8522   -7.9400   35.6298 H   0  0  0  0  0  0  0  0  0  0  0  0
    2.1726   -7.9386   37.9658 H   0  0  0  0  0  0  0  0  0  0  0  0
   -1.1857   -7.5302   37.7788 H   0  0  0  0  0  0  0  0  0  0  0  0
  1  2  1  0
  2  3  1  0
  3  4  2  0
  3  5  2  0
  3  6  1  0
  6  7  1  0
  7  8  1  0
  8  9  2  0
  9 10  1  0
 10 11  2  0
 11 12  1  0
 12 13  2  0
 12 14  1  0
 14 15  1  0
 15 16  1  0
  6 17  1  0
 17 18  1  0
 18 19  2  0
 19 20  1  0
 20 21  1  0
 20 22  2  0
 22 23  1  0
 23 24  1  0
 23 25  2  0
 13  8  1  0
 25 18  1  0
 16 11  1  0
  1 26  1  0
  1 27  1  0
  1 28  1  0
  2 29  1  0
  2 30  1  0
  7 31  1  0
  7 32  1  0
  9 33  1  0
 10 34  1  0
 13 35  1  0
 15 36  1  0
 15 37  1  0
 17 38  1  0
 17 39  1  0
 21 40  1  0
 21 41  1  0
 21 42  1  0
 22 43  1  0
 24 44  1  0
M  END
>  <Energy>  (338) 
-29.99727947513361

>  <compound_id>  (338) 
1648

>  <target_id>  (338) 
1

>  <reference_id>  (338) 
167

>  <inspiration_ids>  (338) 
[13, 167]

>  <energy_score>  (338) 
-26.23687792343298

>  <distance_score>  (338) 
1.7068646281669304

>  <path>  (338) 
/opt/xchem-fragalysis-2/maxwin/BulkDock/SCRATCH/505732/C1648-P167/C1648-P167.minimised.mol

>  <scratch_subdir>  (338) 
/opt/xchem-fragalysis-2/maxwin/BulkDock/SCRATCH/505732/C1648-P167

>  <fragmenstein_runtime>  (338) 
3.0713329315185547

>  <fragmenstein_outcome>  (338) 
too moved

>  <fragmenstein_mode>  (338) 
expansion

>  <fragmenstein_error>  (338) 


$$$$
C1648-P13
     RDKit          3D

 44 46  0  0  0  0  0  0  0  0999 V2000
   -2.4325   -0.5597   32.6657 C   0  0  0  0  0  0  0  0  0  0  0  0
   -1.3720   -0.9774   31.6727 C   0  0  0  0  0  0  0  0  0  0  0  0
   -0.9728   -2.7020   31.8939 S   0  0  0  0  0  0  0  0  0  0  0  0
   -2.0067   -3.5326   31.3288 O   0  0  0  0  0  0  0  0  0  0  0  0
   -0.6072   -2.8494   33.2819 O   0  0  0  0  0  0  0  0  0  0  0  0
    0.4295   -2.9382   30.9770 N   0  0  0  0  0  0  0  0  0  0  0  0
    0.2441   -2.9166   29.4797 C   0  0  0  0  0  0  0  0  0  0  0  0
    0.0149   -1.5319   28.8716 C   0  0  0  0  0  0  0  0  0  0  0  0
    0.9797   -0.5066   29.0148 C   0  0  0  0  0  0  0  0  0  0  0  0
    0.7684    0.7793   28.4855 C   0  0  0  0  0  0  0  0  0  0  0  0
   -0.4128    1.0252   27.8192 C   0  0  0  0  0  0  0  0  0  0  0  0
   -1.3536    0.0415   27.6569 C   0  0  0  0  0  0  0  0  0  0  0  0
   -1.1662   -1.2389   28.1560 C   0  0  0  0  0  0  0  0  0  0  0  0
   -2.4438    0.4881   26.9782 O   0  0  0  0  0  0  0  0  0  0  0  0
   -2.1160    1.8772   26.7885 C   0  0  0  0  0  0  0  0  0  0  0  0
   -0.7912    2.2090   27.2642 O   0  0  0  0  0  0  0  0  0  0  0  0
    1.2492   -4.1208   31.5144 C   0  0  0  0  0  0  0  0  0  0  0  0
    0.5263   -5.3783   31.9972 C   0  0  0  0  0  0  0  0  0  0  0  0
    0.4945   -5.6539   33.3233 N   0  0  0  0  0  0  0  0  0  0  0  0
   -0.2729   -6.6897   33.7300 C   0  0  0  0  0  0  0  0  0  0  0  0
   -0.3863   -6.9367   35.2024 C   0  0  0  0  0  0  0  0  0  0  0  0
   -0.9393   -7.4899   32.8341 C   0  0  0  0  0  0  0  0  0  0  0  0
   -0.7596   -7.1653   31.5191 C   0  0  0  0  0  0  0  0  0  0  0  0
   -1.3649   -7.8828   30.5414 O   0  0  0  0  0  0  0  0  0  0  0  0
   -0.0452   -6.1438   31.0497 N   0  0  0  0  0  0  0  0  0  0  0  0
   -3.3987   -1.0132   32.4229 H   0  0  0  0  0  0  0  0  0  0  0  0
   -2.1763   -0.8557   33.6880 H   0  0  0  0  0  0  0  0  0  0  0  0
   -2.5423    0.5209   32.6730 H   0  0  0  0  0  0  0  0  0  0  0  0
   -0.4570   -0.4016   31.8356 H   0  0  0  0  0  0  0  0  0  0  0  0
   -1.7577   -0.8170   30.6705 H   0  0  0  0  0  0  0  0  0  0  0  0
    1.1494   -3.3165   29.0054 H   0  0  0  0  0  0  0  0  0  0  0  0
   -0.5634   -3.6022   29.1976 H   0  0  0  0  0  0  0  0  0  0  0  0
    1.9014   -0.7076   29.5582 H   0  0  0  0  0  0  0  0  0  0  0  0
    1.5075    1.5633   28.6079 H   0  0  0  0  0  0  0  0  0  0  0  0
   -1.9361   -1.9879   27.9961 H   0  0  0  0  0  0  0  0  0  0  0  0
   -2.8473    2.4945   27.3208 H   0  0  0  0  0  0  0  0  0  0  0  0
   -2.1712    2.1089   25.7190 H   0  0  0  0  0  0  0  0  0  0  0  0
    1.8559   -3.7280   32.3406 H   0  0  0  0  0  0  0  0  0  0  0  0
    1.9657   -4.4284   30.7431 H   0  0  0  0  0  0  0  0  0  0  0  0
   -1.4309   -6.8594   35.5175 H   0  0  0  0  0  0  0  0  0  0  0  0
    0.1946   -6.2004   35.7669 H   0  0  0  0  0  0  0  0  0  0  0  0
   -0.0077   -7.9328   35.4509 H   0  0  0  0  0  0  0  0  0  0  0  0
   -1.5711   -8.3107   33.1346 H   0  0  0  0  0  0  0  0  0  0  0  0
   -1.1449   -7.3261   29.7700 H   0  0  0  0  0  0  0  0  0  0  0  0
  1  2  1  0
  2  3  1  0
  3  4  2  0
  3  5  2  0
  3  6  1  0
  6  7  1  0
  7  8  1  0
  8  9  2  0
  9 10  1  0
 10 11  2  0
 11 12  1  0
 12 13  2  0
 12 14  1  0
 14 15  1  0
 15 16  1  0
  6 17  1  0
 17 18  1  0
 18 19  2  0
 19 20  1  0
 20 21  1  0
 20 22  2  0
 22 23  1  0
 23 24  1  0
 23 25  2  0
 13  8  1  0
 25 18  1  0
 16 11  1  0
  1 26  1  0
  1 27  1  0
  1 28  1  0
  2 29  1  0
  2 30  1  0
  7 31  1  0
  7 32  1  0
  9 33  1  0
 10 34  1  0
 13 35  1  0
 15 36  1  0
 15 37  1  0
 17 38  1  0
 17 39  1  0
 21 40  1  0
 21 41  1  0
 21 42  1  0
 22 43  1  0
 24 44  1  0
M  END
>  <Energy>  (339) 
-77.599980066740599

>  <compound_id>  (339) 
1648

>  <target_id>  (339) 
1

>  <reference_id>  (339) 
13

>  <inspiration_ids>  (339) 
[13, 168]

>  <energy_score>  (339) 
-70.73096639091301

>  <distance_score>  (339) 
1.3311732014128184

>  <path>  (339) 
/opt/xchem-fragalysis-2/maxwin/BulkDock/SCRATCH/505732/C1648-P13/C1648-P13.minimised.mol

>  <scratch_subdir>  (339) 
/opt/xchem-fragalysis-2/maxwin/BulkDock/SCRATCH/505732/C1648-P13

>  <fragmenstein_runtime>  (339) 
4.324169874191284

>  <fragmenstein_outcome>  (339) 
too moved

>  <fragmenstein_mode>  (339) 
expansion

>  <fragmenstein_error>  (339) 


$$$$
C1648-P168
     RDKit          3D

 44 46  0  0  0  0  0  0  0  0999 V2000
   -2.3401   -0.5120   32.7233 C   0  0  0  0  0  0  0  0  0  0  0  0
   -1.2779   -0.9383   31.7359 C   0  0  0  0  0  0  0  0  0  0  0  0
   -0.9231   -2.6768   31.9257 S   0  0  0  0  0  0  0  0  0  0  0  0
   -1.9499   -3.4738   31.3019 O   0  0  0  0  0  0  0  0  0  0  0  0
   -0.6077   -2.8691   33.3191 O   0  0  0  0  0  0  0  0  0  0  0  0
    0.4988   -2.9225   31.0460 N   0  0  0  0  0  0  0  0  0  0  0  0
    0.3714   -2.8249   29.5467 C   0  0  0  0  0  0  0  0  0  0  0  0
    0.2151   -1.4076   28.9905 C   0  0  0  0  0  0  0  0  0  0  0  0
    1.1608   -0.4016   29.2971 C   0  0  0  0  0  0  0  0  0  0  0  0
    1.0190    0.9144   28.8199 C   0  0  0  0  0  0  0  0  0  0  0  0
   -0.0679    1.2105   28.0289 C   0  0  0  0  0  0  0  0  0  0  0  0
   -0.9765    0.2440   27.6899 C   0  0  0  0  0  0  0  0  0  0  0  0
   -0.8631   -1.0634   28.1479 C   0  0  0  0  0  0  0  0  0  0  0  0
   -1.9395    0.7350   26.8627 O   0  0  0  0  0  0  0  0  0  0  0  0
   -1.6219    2.1383   26.8451 C   0  0  0  0  0  0  0  0  0  0  0  0
   -0.3671    2.4258   27.4947 O   0  0  0  0  0  0  0  0  0  0  0  0
    1.2878   -4.1316   31.5695 C   0  0  0  0  0  0  0  0  0  0  0  0
    0.5429   -5.3759   32.0636 C   0  0  0  0  0  0  0  0  0  0  0  0
    0.4581   -5.6050   33.3951 N   0  0  0  0  0  0  0  0  0  0  0  0
   -0.3371   -6.6136   33.8156 C   0  0  0  0  0  0  0  0  0  0  0  0
   -0.5104   -6.7924   35.2925 C   0  0  0  0  0  0  0  0  0  0  0  0
   -0.9642   -7.4543   32.9288 C   0  0  0  0  0  0  0  0  0  0  0  0
   -0.7156   -7.1913   31.6103 C   0  0  0  0  0  0  0  0  0  0  0  0
   -1.2314   -7.9843   30.6376 O   0  0  0  0  0  0  0  0  0  0  0  0
    0.0165   -6.1865   31.1257 N   0  0  0  0  0  0  0  0  0  0  0  0
   -3.3162   -0.9305   32.4612 H   0  0  0  0  0  0  0  0  0  0  0  0
   -2.1062   -0.8383   33.7418 H   0  0  0  0  0  0  0  0  0  0  0  0
   -2.4132    0.5718   32.7562 H   0  0  0  0  0  0  0  0  0  0  0  0
   -0.3518   -0.3910   31.9316 H   0  0  0  0  0  0  0  0  0  0  0  0
   -1.6352   -0.7458   30.7279 H   0  0  0  0  0  0  0  0  0  0  0  0
    1.2788   -3.2366   29.0870 H   0  0  0  0  0  0  0  0  0  0  0  0
   -0.4502   -3.4661   29.2063 H   0  0  0  0  0  0  0  0  0  0  0  0
    2.0133   -0.6384   29.9323 H   0  0  0  0  0  0  0  0  0  0  0  0
    1.7437    1.6813   29.0720 H   0  0  0  0  0  0  0  0  0  0  0  0
   -1.6034   -1.7981   27.8428 H   0  0  0  0  0  0  0  0  0  0  0  0
   -2.4189    2.6981   27.3429 H   0  0  0  0  0  0  0  0  0  0  0  0
   -1.5622    2.4738   25.8042 H   0  0  0  0  0  0  0  0  0  0  0  0
    1.9140   -3.7576   32.3899 H   0  0  0  0  0  0  0  0  0  0  0  0
    1.9868   -4.4577   30.7897 H   0  0  0  0  0  0  0  0  0  0  0  0
   -1.5713   -6.7625   35.5564 H   0  0  0  0  0  0  0  0  0  0  0  0
   -0.0006   -5.9962   35.8441 H   0  0  0  0  0  0  0  0  0  0  0  0
   -0.0900   -7.7516   35.6085 H   0  0  0  0  0  0  0  0  0  0  0  0
   -1.6020   -8.2668   33.2416 H   0  0  0  0  0  0  0  0  0  0  0  0
   -0.8389   -7.5431   29.8608 H   0  0  0  0  0  0  0  0  0  0  0  0
  1  2  1  0
  2  3  1  0
  3  4  2  0
  3  5  2  0
  3  6  1  0
  6  7  1  0
  7  8  1  0
  8  9  2  0
  9 10  1  0
 10 11  2  0
 11 12  1  0
 12 13  2  0
 12 14  1  0
 14 15  1  0
 15 16  1  0
  6 17  1  0
 17 18  1  0
 18 19  2  0
 19 20  1  0
 20 21  1  0
 20 22  2  0
 22 23  1  0
 23 24  1  0
 23 25  2  0
 13  8  1  0
 25 18  1  0
 16 11  1  0
  1 26  1  0
  1 27  1  0
  1 28  1  0
  2 29  1  0
  2 30  1  0
  7 31  1  0
  7 32  1  0
  9 33  1  0
 10 34  1  0
 13 35  1  0
 15 36  1  0
 15 37  1  0
 17 38  1  0
 17 39  1  0
 21 40  1  0
 21 41  1  0
 21 42  1  0
 22 43  1  0
 24 44  1  0
M  END
>  <Energy>  (340) 
-76.075918518402915

>  <compound_id>  (340) 
1648

>  <target_id>  (340) 
1

>  <reference_id>  (340) 
168

>  <inspiration_ids>  (340) 
[13, 168]

>  <energy_score>  (340) 
-69.20690484257469

>  <distance_score>  (340) 
1.392110669984565

>  <path>  (340) 
/opt/xchem-fragalysis-2/maxwin/BulkDock/SCRATCH/505732/C1648-P168/C1648-P168.minimised.mol

>  <scratch_subdir>  (340) 
/opt/xchem-fragalysis-2/maxwin/BulkDock/SCRATCH/505732/C1648-P168

>  <fragmenstein_runtime>  (340) 
5.257963180541992

>  <fragmenstein_outcome>  (340) 
too moved

>  <fragmenstein_mode>  (340) 
expansion

>  <fragmenstein_error>  (340) 


$$$$
C1647-P13
     RDKit          3D

 41 43  0  0  0  0  0  0  0  0999 V2000
   -2.3767   -0.8406   31.9041 C   0  0  0  0  0  0  0  0  0  0  0  0
   -1.1833   -1.5622   32.4898 C   0  0  0  0  0  0  0  0  0  0  0  0
   -0.6757   -2.9993   31.5435 S   0  0  0  0  0  0  0  0  0  0  0  0
    0.6253   -3.4319   32.0092 O   0  0  0  0  0  0  0  0  0  0  0  0
   -1.7861   -3.9311   31.5379 O   0  0  0  0  0  0  0  0  0  0  0  0
   -0.4511   -2.4638   29.9688 N   0  0  0  0  0  0  0  0  0  0  0  0
    0.3964   -1.2619   29.8018 C   0  0  0  0  0  0  0  0  0  0  0  0
   -0.0019   -0.2902   28.7154 C   0  0  0  0  0  0  0  0  0  0  0  0
    0.9203    0.7421   28.4105 C   0  0  0  0  0  0  0  0  0  0  0  0
    0.5630    1.8178   27.5995 C   0  0  0  0  0  0  0  0  0  0  0  0
   -0.7194    1.8402   27.1071 C   0  0  0  0  0  0  0  0  0  0  0  0
   -1.6097    0.8223   27.3508 C   0  0  0  0  0  0  0  0  0  0  0  0
   -1.2816   -0.2632   28.1382 C   0  0  0  0  0  0  0  0  0  0  0  0
   -2.8132    1.0541   26.7638 O   0  0  0  0  0  0  0  0  0  0  0  0
   -2.6241    2.3884   26.2566 C   0  0  0  0  0  0  0  0  0  0  0  0
   -1.2549    2.8343   26.3503 O   0  0  0  0  0  0  0  0  0  0  0  0
   -0.1236   -3.5506   28.9942 C   0  0  0  0  0  0  0  0  0  0  0  0
    1.3357   -3.6645   28.5638 C   0  0  0  0  0  0  0  0  0  0  0  0
    1.8291   -2.7565   27.7862 N   0  0  0  0  0  0  0  0  0  0  0  0
    3.1331   -2.8480   27.4091 C   0  0  0  0  0  0  0  0  0  0  0  0
    3.9310   -3.8692   27.6970 C   0  0  0  0  0  0  0  0  0  0  0  0
    3.3706   -4.9153   28.5512 C   0  0  0  0  0  0  0  0  0  0  0  0
    4.0433   -5.9018   28.8216 O   0  0  0  0  0  0  0  0  0  0  0  0
    2.0904   -4.7162   28.9974 N   0  0  0  0  0  0  0  0  0  0  0  0
   -3.2185   -1.5255   31.7682 H   0  0  0  0  0  0  0  0  0  0  0  0
   -2.1517   -0.3871   30.9379 H   0  0  0  0  0  0  0  0  0  0  0  0
   -2.6947   -0.0467   32.5854 H   0  0  0  0  0  0  0  0  0  0  0  0
   -0.3274   -0.8978   32.6272 H   0  0  0  0  0  0  0  0  0  0  0  0
   -1.4445   -1.9482   33.4821 H   0  0  0  0  0  0  0  0  0  0  0  0
    1.4601   -1.5089   29.7622 H   0  0  0  0  0  0  0  0  0  0  0  0
    0.3283   -0.6486   30.7042 H   0  0  0  0  0  0  0  0  0  0  0  0
    1.9188    0.7261   28.8439 H   0  0  0  0  0  0  0  0  0  0  0  0
    1.2569    2.6223   27.3865 H   0  0  0  0  0  0  0  0  0  0  0  0
   -2.0172   -1.0373   28.3288 H   0  0  0  0  0  0  0  0  0  0  0  0
   -3.2616    3.0796   26.8190 H   0  0  0  0  0  0  0  0  0  0  0  0
   -2.9217    2.4139   25.2045 H   0  0  0  0  0  0  0  0  0  0  0  0
   -0.7185   -3.3603   28.0968 H   0  0  0  0  0  0  0  0  0  0  0  0
   -0.4535   -4.5193   29.3814 H   0  0  0  0  0  0  0  0  0  0  0  0
    3.5216   -2.0152   26.8273 H   0  0  0  0  0  0  0  0  0  0  0  0
    4.9610   -3.9401   27.3772 H   0  0  0  0  0  0  0  0  0  0  0  0
    1.7048   -5.4065   29.6240 H   0  0  0  0  0  0  0  0  0  0  0  0
  1  2  1  0
  2  3  1  0
  3  4  2  0
  3  5  2  0
  3  6  1  0
  6  7  1  0
  7  8  1  0
  8  9  2  0
  9 10  1  0
 10 11  2  0
 11 12  1  0
 12 13  2  0
 12 14  1  0
 14 15  1  0
 15 16  1  0
  6 17  1  0
 17 18  1  0
 18 19  2  0
 19 20  1  0
 20 21  2  0
 21 22  1  0
 22 23  2  0
 22 24  1  0
 13  8  1  0
 24 18  1  0
 16 11  1  0
  1 25  1  0
  1 26  1  0
  1 27  1  0
  2 28  1  0
  2 29  1  0
  7 30  1  0
  7 31  1  0
  9 32  1  0
 10 33  1  0
 13 34  1  0
 15 35  1  0
 15 36  1  0
 17 37  1  0
 17 38  1  0
 20 39  1  0
 21 40  1  0
 24 41  1  0
M  END
>  <Energy>  (341) 
-71.920106606283355

>  <compound_id>  (341) 
1647

>  <target_id>  (341) 
1

>  <reference_id>  (341) 
13

>  <inspiration_ids>  (341) 
[13, 177]

>  <energy_score>  (341) 
-58.2096736663417

>  <distance_score>  (341) 
1.2103218910632154

>  <path>  (341) 
/opt/xchem-fragalysis-2/maxwin/BulkDock/SCRATCH/505732/C1647-P13/C1647-P13.minimised.mol

>  <scratch_subdir>  (341) 
/opt/xchem-fragalysis-2/maxwin/BulkDock/SCRATCH/505732/C1647-P13

>  <fragmenstein_runtime>  (341) 
3.1217546463012695

>  <fragmenstein_outcome>  (341) 
too moved

>  <fragmenstein_mode>  (341) 
expansion

>  <fragmenstein_error>  (341) 


$$$$
C1647-P177
     RDKit          3D

 41 43  0  0  0  0  0  0  0  0999 V2000
   -1.8292   -0.8863   31.6475 C   0  0  0  0  0  0  0  0  0  0  0  0
   -0.5100   -1.5777   31.9195 C   0  0  0  0  0  0  0  0  0  0  0  0
   -0.4829   -3.3369   31.5318 S   0  0  0  0  0  0  0  0  0  0  0  0
    0.5351   -3.9276   32.3768 O   0  0  0  0  0  0  0  0  0  0  0  0
   -1.8350   -3.8559   31.5491 O   0  0  0  0  0  0  0  0  0  0  0  0
    0.1126   -3.4578   29.9655 N   0  0  0  0  0  0  0  0  0  0  0  0
   -0.7472   -2.9894   28.8679 C   0  0  0  0  0  0  0  0  0  0  0  0
   -0.4091   -1.5957   28.4425 C   0  0  0  0  0  0  0  0  0  0  0  0
    0.8062   -0.9398   28.7727 C   0  0  0  0  0  0  0  0  0  0  0  0
    0.8887    0.4480   28.7675 C   0  0  0  0  0  0  0  0  0  0  0  0
   -0.2611    1.1073   28.4449 C   0  0  0  0  0  0  0  0  0  0  0  0
   -1.3660    0.4459   27.9505 C   0  0  0  0  0  0  0  0  0  0  0  0
   -1.4541   -0.9021   27.8597 C   0  0  0  0  0  0  0  0  0  0  0  0
   -2.3795    1.2955   27.6542 O   0  0  0  0  0  0  0  0  0  0  0  0
   -1.9378    2.3913   28.4435 C   0  0  0  0  0  0  0  0  0  0  0  0
   -0.5158    2.4297   28.6260 O   0  0  0  0  0  0  0  0  0  0  0  0
    0.8342   -4.7044   29.5825 C   0  0  0  0  0  0  0  0  0  0  0  0
    1.7924   -4.3299   28.4500 C   0  0  0  0  0  0  0  0  0  0  0  0
    1.3624   -4.1730   27.2350 N   0  0  0  0  0  0  0  0  0  0  0  0
    2.2478   -3.6629   26.3222 C   0  0  0  0  0  0  0  0  0  0  0  0
    3.5449   -3.4550   26.5475 C   0  0  0  0  0  0  0  0  0  0  0  0
    4.0447   -3.7691   27.8877 C   0  0  0  0  0  0  0  0  0  0  0  0
    5.2379   -3.7285   28.1588 O   0  0  0  0  0  0  0  0  0  0  0  0
    3.0909   -4.0963   28.8063 N   0  0  0  0  0  0  0  0  0  0  0  0
   -2.6330   -1.3279   32.2454 H   0  0  0  0  0  0  0  0  0  0  0  0
   -2.1178   -0.9613   30.6023 H   0  0  0  0  0  0  0  0  0  0  0  0
   -1.7611    0.1746   31.9066 H   0  0  0  0  0  0  0  0  0  0  0  0
    0.3336   -1.0992   31.4217 H   0  0  0  0  0  0  0  0  0  0  0  0
   -0.3060   -1.5173   32.9953 H   0  0  0  0  0  0  0  0  0  0  0  0
   -1.7830   -2.9949   29.2271 H   0  0  0  0  0  0  0  0  0  0  0  0
   -0.7635   -3.6570   28.0053 H   0  0  0  0  0  0  0  0  0  0  0  0
    1.6536   -1.5062   29.1492 H   0  0  0  0  0  0  0  0  0  0  0  0
    1.7741    0.9740   29.1005 H   0  0  0  0  0  0  0  0  0  0  0  0
   -2.3648   -1.3888   27.5329 H   0  0  0  0  0  0  0  0  0  0  0  0
   -2.3937    2.1531   29.3852 H   0  0  0  0  0  0  0  0  0  0  0  0
   -2.3061    3.3565   28.0897 H   0  0  0  0  0  0  0  0  0  0  0  0
    0.1336   -5.4727   29.2398 H   0  0  0  0  0  0  0  0  0  0  0  0
    1.4163   -5.1004   30.4182 H   0  0  0  0  0  0  0  0  0  0  0  0
    1.8381   -3.4100   25.3462 H   0  0  0  0  0  0  0  0  0  0  0  0
    4.2262   -3.0596   25.8074 H   0  0  0  0  0  0  0  0  0  0  0  0
    3.4152   -4.2338   29.7508 H   0  0  0  0  0  0  0  0  0  0  0  0
  1  2  1  0
  2  3  1  0
  3  4  2  0
  3  5  2  0
  3  6  1  0
  6  7  1  0
  7  8  1  0
  8  9  2  0
  9 10  1  0
 10 11  2  0
 11 12  1  0
 12 13  2  0
 12 14  1  0
 14 15  1  0
 15 16  1  0
  6 17  1  0
 17 18  1  0
 18 19  2  0
 19 20  1  0
 20 21  2  0
 21 22  1  0
 22 23  2  0
 22 24  1  0
 13  8  1  0
 24 18  1  0
 16 11  1  0
  1 25  1  0
  1 26  1  0
  1 27  1  0
  2 28  1  0
  2 29  1  0
  7 30  1  0
  7 31  1  0
  9 32  1  0
 10 33  1  0
 13 34  1  0
 15 35  1  0
 15 36  1  0
 17 37  1  0
 17 38  1  0
 20 39  1  0
 21 40  1  0
 24 41  1  0
M  END
>  <Energy>  (342) 
-59.001254647383803

>  <compound_id>  (342) 
1647

>  <target_id>  (342) 
1

>  <reference_id>  (342) 
177

>  <inspiration_ids>  (342) 
[13, 177]

>  <energy_score>  (342) 
-45.29082170744486

>  <distance_score>  (342) 
1.0451361260692305

>  <path>  (342) 
/opt/xchem-fragalysis-2/maxwin/BulkDock/SCRATCH/505732/C1647-P177/C1647-P177.minimised.mol

>  <scratch_subdir>  (342) 
/opt/xchem-fragalysis-2/maxwin/BulkDock/SCRATCH/505732/C1647-P177

>  <fragmenstein_runtime>  (342) 
3.2861812114715576

>  <fragmenstein_outcome>  (342) 
too moved

>  <fragmenstein_mode>  (342) 
expansion

>  <fragmenstein_error>  (342) 


$$$$
C1647-P13
     RDKit          3D

 41 43  0  0  0  0  0  0  0  0999 V2000
   -2.3837   -0.7915   31.0930 C   0  0  0  0  0  0  0  0  0  0  0  0
   -1.0475   -1.0847   31.7032 C   0  0  0  0  0  0  0  0  0  0  0  0
   -0.6856   -2.8275   31.7604 S   0  0  0  0  0  0  0  0  0  0  0  0
    0.5393   -2.9505   32.5187 O   0  0  0  0  0  0  0  0  0  0  0  0
   -1.8870   -3.5400   32.1598 O   0  0  0  0  0  0  0  0  0  0  0  0
   -0.3607   -3.4197   30.2222 N   0  0  0  0  0  0  0  0  0  0  0  0
    0.5753   -2.6668   29.3222 C   0  0  0  0  0  0  0  0  0  0  0  0
    0.1453   -1.3192   28.7579 C   0  0  0  0  0  0  0  0  0  0  0  0
    1.0350   -0.2161   28.8473 C   0  0  0  0  0  0  0  0  0  0  0  0
    0.7066    1.0431   28.3245 C   0  0  0  0  0  0  0  0  0  0  0  0
   -0.5101    1.1825   27.6995 C   0  0  0  0  0  0  0  0  0  0  0  0
   -1.3725    0.1225   27.5743 C   0  0  0  0  0  0  0  0  0  0  0  0
   -1.0710   -1.1361   28.0765 C   0  0  0  0  0  0  0  0  0  0  0  0
   -2.5056    0.4740   26.9107 O   0  0  0  0  0  0  0  0  0  0  0  0
   -2.2889    1.8806   26.6871 C   0  0  0  0  0  0  0  0  0  0  0  0
   -0.9906    2.3245   27.1384 O   0  0  0  0  0  0  0  0  0  0  0  0
    0.0371   -4.9075   30.2720 C   0  0  0  0  0  0  0  0  0  0  0  0
    0.3028   -5.6261   31.6132 C   0  0  0  0  0  0  0  0  0  0  0  0
    1.5294   -5.7485   32.0188 N   0  0  0  0  0  0  0  0  0  0  0  0
    1.7264   -6.2523   33.2738 C   0  0  0  0  0  0  0  0  0  0  0  0
    0.7647   -6.6660   34.0989 C   0  0  0  0  0  0  0  0  0  0  0  0
   -0.6154   -6.5863   33.6135 C   0  0  0  0  0  0  0  0  0  0  0  0
   -1.5538   -6.9158   34.3286 O   0  0  0  0  0  0  0  0  0  0  0  0
   -0.7563   -6.1211   32.3318 N   0  0  0  0  0  0  0  0  0  0  0  0
   -3.1868   -0.9458   31.8203 H   0  0  0  0  0  0  0  0  0  0  0  0
   -2.4211    0.2370   30.7427 H   0  0  0  0  0  0  0  0  0  0  0  0
   -2.5741   -1.4484   30.2480 H   0  0  0  0  0  0  0  0  0  0  0  0
   -0.2218   -0.5669   31.2205 H   0  0  0  0  0  0  0  0  0  0  0  0
   -1.0475   -0.7422   32.7448 H   0  0  0  0  0  0  0  0  0  0  0  0
    1.5328   -2.5633   29.8493 H   0  0  0  0  0  0  0  0  0  0  0  0
    0.7840   -3.2886   28.4412 H   0  0  0  0  0  0  0  0  0  0  0  0
    1.9996   -0.3337   29.3397 H   0  0  0  0  0  0  0  0  0  0  0  0
    1.3867    1.8833   28.4085 H   0  0  0  0  0  0  0  0  0  0  0  0
   -1.7686   -1.9557   27.9305 H   0  0  0  0  0  0  0  0  0  0  0  0
   -2.3725    2.0823   25.6135 H   0  0  0  0  0  0  0  0  0  0  0  0
   -3.0616    2.4506   27.2127 H   0  0  0  0  0  0  0  0  0  0  0  0
    0.9534   -5.0476   29.6837 H   0  0  0  0  0  0  0  0  0  0  0  0
   -0.7401   -5.4654   29.7576 H   0  0  0  0  0  0  0  0  0  0  0  0
    2.7593   -6.2652   33.6107 H   0  0  0  0  0  0  0  0  0  0  0  0
    0.9372   -7.0313   35.1002 H   0  0  0  0  0  0  0  0  0  0  0  0
   -1.7024   -5.8948   32.0694 H   0  0  0  0  0  0  0  0  0  0  0  0
  1  2  1  0
  2  3  1  0
  3  4  2  0
  3  5  2  0
  3  6  1  0
  6  7  1  0
  7  8  1  0
  8  9  2  0
  9 10  1  0
 10 11  2  0
 11 12  1  0
 12 13  2  0
 12 14  1  0
 14 15  1  0
 15 16  1  0
  6 17  1  0
 17 18  1  0
 18 19  2  0
 19 20  1  0
 20 21  2  0
 21 22  1  0
 22 23  2  0
 22 24  1  0
 13  8  1  0
 24 18  1  0
 16 11  1  0
  1 25  1  0
  1 26  1  0
  1 27  1  0
  2 28  1  0
  2 29  1  0
  7 30  1  0
  7 31  1  0
  9 32  1  0
 10 33  1  0
 13 34  1  0
 15 35  1  0
 15 36  1  0
 17 37  1  0
 17 38  1  0
 20 39  1  0
 21 40  1  0
 24 41  1  0
M  END
>  <Energy>  (343) 
-67.233917343959462

>  <compound_id>  (343) 
1647

>  <target_id>  (343) 
1

>  <reference_id>  (343) 
13

>  <inspiration_ids>  (343) 
[13, 180]

>  <energy_score>  (343) 
-50.485881524596834

>  <distance_score>  (343) 
1.1979742690156883

>  <path>  (343) 
/opt/xchem-fragalysis-2/maxwin/BulkDock/SCRATCH/505732/C1647-P13/C1647-P13.minimised.mol

>  <scratch_subdir>  (343) 
/opt/xchem-fragalysis-2/maxwin/BulkDock/SCRATCH/505732/C1647-P13

>  <fragmenstein_runtime>  (343) 
5.047038316726685

>  <fragmenstein_outcome>  (343) 
too moved

>  <fragmenstein_mode>  (343) 
expansion

>  <fragmenstein_error>  (343) 


$$$$
C1647-P180
     RDKit          3D

 41 43  0  0  0  0  0  0  0  0999 V2000
   -2.1894   -0.5583   32.4876 C   0  0  0  0  0  0  0  0  0  0  0  0
   -1.3735   -1.0676   31.3220 C   0  0  0  0  0  0  0  0  0  0  0  0
   -0.8749   -2.7659   31.5633 S   0  0  0  0  0  0  0  0  0  0  0  0
    0.2752   -2.7659   32.4388 O   0  0  0  0  0  0  0  0  0  0  0  0
   -2.0507   -3.5599   31.8809 O   0  0  0  0  0  0  0  0  0  0  0  0
   -0.3561   -3.3833   30.0872 N   0  0  0  0  0  0  0  0  0  0  0  0
    0.6273   -2.5988   29.2696 C   0  0  0  0  0  0  0  0  0  0  0  0
    0.2616   -1.2112   28.7614 C   0  0  0  0  0  0  0  0  0  0  0  0
    1.1530   -0.1358   29.0156 C   0  0  0  0  0  0  0  0  0  0  0  0
    0.8995    1.1629   28.5531 C   0  0  0  0  0  0  0  0  0  0  0  0
   -0.2420    1.3723   27.8189 C   0  0  0  0  0  0  0  0  0  0  0  0
   -1.1008    0.3418   27.5311 C   0  0  0  0  0  0  0  0  0  0  0  0
   -0.8834   -0.9549   27.9841 C   0  0  0  0  0  0  0  0  0  0  0  0
   -2.1252    0.7656   26.7430 O   0  0  0  0  0  0  0  0  0  0  0  0
   -1.8955    2.1852   26.6924 C   0  0  0  0  0  0  0  0  0  0  0  0
   -0.6379    2.5594   27.2856 O   0  0  0  0  0  0  0  0  0  0  0  0
    0.1057   -4.8415   30.2012 C   0  0  0  0  0  0  0  0  0  0  0  0
    0.3553   -5.5147   31.5674 C   0  0  0  0  0  0  0  0  0  0  0  0
    1.5781   -5.6219   31.9883 N   0  0  0  0  0  0  0  0  0  0  0  0
    1.7702   -6.1214   33.2456 C   0  0  0  0  0  0  0  0  0  0  0  0
    0.8064   -6.5549   34.0580 C   0  0  0  0  0  0  0  0  0  0  0  0
   -0.5690   -6.4999   33.5551 C   0  0  0  0  0  0  0  0  0  0  0  0
   -1.5053   -6.8845   34.2446 O   0  0  0  0  0  0  0  0  0  0  0  0
   -0.7065   -6.0104   32.2816 N   0  0  0  0  0  0  0  0  0  0  0  0
   -3.1285   -1.1116   32.5881 H   0  0  0  0  0  0  0  0  0  0  0  0
   -1.6399   -0.6636   33.4288 H   0  0  0  0  0  0  0  0  0  0  0  0
   -2.4274    0.4977   32.3519 H   0  0  0  0  0  0  0  0  0  0  0  0
   -1.9749   -1.0117   30.4204 H   0  0  0  0  0  0  0  0  0  0  0  0
   -0.4714   -0.4617   31.2307 H   0  0  0  0  0  0  0  0  0  0  0  0
    1.5644   -2.5480   29.8403 H   0  0  0  0  0  0  0  0  0  0  0  0
    0.8582   -3.1819   28.3678 H   0  0  0  0  0  0  0  0  0  0  0  0
    2.0627   -0.3059   29.5911 H   0  0  0  0  0  0  0  0  0  0  0  0
    1.5835    1.9784   28.7614 H   0  0  0  0  0  0  0  0  0  0  0  0
   -1.5801   -1.7462   27.7199 H   0  0  0  0  0  0  0  0  0  0  0  0
   -1.8950    2.5013   25.6434 H   0  0  0  0  0  0  0  0  0  0  0  0
   -2.7083    2.7025   27.2123 H   0  0  0  0  0  0  0  0  0  0  0  0
    1.0465   -4.9569   29.6457 H   0  0  0  0  0  0  0  0  0  0  0  0
   -0.6159   -5.4526   29.6652 H   0  0  0  0  0  0  0  0  0  0  0  0
    2.8000   -6.1183   33.5936 H   0  0  0  0  0  0  0  0  0  0  0  0
    0.9746   -6.9199   35.0605 H   0  0  0  0  0  0  0  0  0  0  0  0
   -1.6537   -5.7951   32.0084 H   0  0  0  0  0  0  0  0  0  0  0  0
  1  2  1  0
  2  3  1  0
  3  4  2  0
  3  5  2  0
  3  6  1  0
  6  7  1  0
  7  8  1  0
  8  9  2  0
  9 10  1  0
 10 11  2  0
 11 12  1  0
 12 13  2  0
 12 14  1  0
 14 15  1  0
 15 16  1  0
  6 17  1  0
 17 18  1  0
 18 19  2  0
 19 20  1  0
 20 21  2  0
 21 22  1  0
 22 23  2  0
 22 24  1  0
 13  8  1  0
 24 18  1  0
 16 11  1  0
  1 25  1  0
  1 26  1  0
  1 27  1  0
  2 28  1  0
  2 29  1  0
  7 30  1  0
  7 31  1  0
  9 32  1  0
 10 33  1  0
 13 34  1  0
 15 35  1  0
 15 36  1  0
 17 37  1  0
 17 38  1  0
 20 39  1  0
 21 40  1  0
 24 41  1  0
M  END
>  <Energy>  (344) 
-72.217077772537095

>  <compound_id>  (344) 
1647

>  <target_id>  (344) 
1

>  <reference_id>  (344) 
180

>  <inspiration_ids>  (344) 
[13, 180]

>  <energy_score>  (344) 
-55.469041953175605

>  <distance_score>  (344) 
1.276542920886515

>  <path>  (344) 
/opt/xchem-fragalysis-2/maxwin/BulkDock/SCRATCH/505732/C1647-P180/C1647-P180.minimised.mol

>  <scratch_subdir>  (344) 
/opt/xchem-fragalysis-2/maxwin/BulkDock/SCRATCH/505732/C1647-P180

>  <fragmenstein_runtime>  (344) 
5.334529399871826

>  <fragmenstein_outcome>  (344) 
too moved

>  <fragmenstein_mode>  (344) 
expansion

>  <fragmenstein_error>  (344) 


$$$$
C258-P13
     RDKit          3D

 57 59  0  0  0  0  0  0  0  0999 V2000
   -0.4612   -6.1976   40.6551 C   0  0  0  0  0  0  0  0  0  0  0  0
    0.6210   -5.4261   39.9251 C   0  0  0  0  0  0  0  0  0  0  0  0
    0.5022   -5.6116   38.5066 O   0  0  0  0  0  0  0  0  0  0  0  0
   -0.3541   -4.7733   37.8774 C   0  0  0  0  0  0  0  0  0  0  0  0
   -1.0430   -3.9081   38.3961 O   0  0  0  0  0  0  0  0  0  0  0  0
   -0.3653   -4.9965   36.4184 C   0  0  0  0  0  0  0  0  0  0  0  0
    0.4173   -5.8703   35.7651 C   0  0  0  0  0  0  0  0  0  0  0  0
    0.3342   -5.9819   34.3073 C   0  0  0  0  0  0  0  0  0  0  0  0
    0.6520   -4.8919   33.4871 C   0  0  0  0  0  0  0  0  0  0  0  0
    0.3931   -4.9516   32.1179 C   0  0  0  0  0  0  0  0  0  0  0  0
    0.4399   -3.7388   31.3035 N   0  0  0  0  0  0  0  0  0  0  0  0
   -0.8730   -2.9225   31.2364 S   0  0  0  0  0  0  0  0  0  0  0  0
   -2.1772   -3.4814   31.5256 O   0  0  0  0  0  0  0  0  0  0  0  0
   -0.6696   -1.4375   32.1926 C   0  0  0  0  0  0  0  0  0  0  0  0
   -1.8480   -0.4953   32.0617 C   0  0  0  0  0  0  0  0  0  0  0  0
   -1.0012   -2.4936   29.6359 N   0  0  0  0  0  0  0  0  0  0  0  0
    0.0747   -1.9347   28.8554 C   0  0  0  0  0  0  0  0  0  0  0  0
   -0.2563   -0.5377   28.3901 C   0  0  0  0  0  0  0  0  0  0  0  0
    0.6046    0.5416   28.6972 C   0  0  0  0  0  0  0  0  0  0  0  0
    0.3200    1.8374   28.2545 C   0  0  0  0  0  0  0  0  0  0  0  0
   -0.8255    2.0253   27.5130 C   0  0  0  0  0  0  0  0  0  0  0  0
   -1.6695    0.9862   27.2094 C   0  0  0  0  0  0  0  0  0  0  0  0
   -1.4133   -0.3010   27.6272 C   0  0  0  0  0  0  0  0  0  0  0  0
   -2.7296    1.3826   26.4581 O   0  0  0  0  0  0  0  0  0  0  0  0
   -2.5101    2.8059   26.4068 C   0  0  0  0  0  0  0  0  0  0  0  0
   -1.2499    3.2067   26.9915 O   0  0  0  0  0  0  0  0  0  0  0  0
   -0.0972   -6.1117   31.5322 C   0  0  0  0  0  0  0  0  0  0  0  0
   -0.4092   -7.1962   32.3469 C   0  0  0  0  0  0  0  0  0  0  0  0
   -1.3087   -8.2312   31.7998 C   0  0  0  0  0  0  0  0  0  0  0  0
   -0.8480   -8.9210   30.6329 N   0  0  0  0  0  0  0  0  0  0  0  0
   -2.3499   -8.2905   32.3764 O   0  0  0  0  0  0  0  0  0  0  0  0
   -0.1996   -7.1370   33.7317 C   0  0  0  0  0  0  0  0  0  0  0  0
   -0.4400   -7.2542   40.3695 H   0  0  0  0  0  0  0  0  0  0  0  0
   -0.3284   -6.1213   41.7379 H   0  0  0  0  0  0  0  0  0  0  0  0
   -1.4540   -5.8151   40.3996 H   0  0  0  0  0  0  0  0  0  0  0  0
    1.6046   -5.8106   40.2146 H   0  0  0  0  0  0  0  0  0  0  0  0
    0.6021   -4.3622   40.1885 H   0  0  0  0  0  0  0  0  0  0  0  0
   -1.0752   -4.3639   35.8913 H   0  0  0  0  0  0  0  0  0  0  0  0
    1.1154   -6.5259   36.2771 H   0  0  0  0  0  0  0  0  0  0  0  0
    1.0166   -3.9639   33.9197 H   0  0  0  0  0  0  0  0  0  0  0  0
    0.2552   -0.9505   31.8695 H   0  0  0  0  0  0  0  0  0  0  0  0
   -0.5539   -1.7456   33.2366 H   0  0  0  0  0  0  0  0  0  0  0  0
   -2.7794   -0.9740   32.3804 H   0  0  0  0  0  0  0  0  0  0  0  0
   -1.9807   -0.1620   31.0286 H   0  0  0  0  0  0  0  0  0  0  0  0
   -1.6901    0.3855   32.6899 H   0  0  0  0  0  0  0  0  0  0  0  0
   -1.5542   -3.1584   29.1031 H   0  0  0  0  0  0  0  0  0  0  0  0
    1.0124   -1.9165   29.4227 H   0  0  0  0  0  0  0  0  0  0  0  0
    0.2720   -2.5677   27.9854 H   0  0  0  0  0  0  0  0  0  0  0  0
    1.5068    0.3726   29.2808 H   0  0  0  0  0  0  0  0  0  0  0  0
    0.9736    2.6711   28.4840 H   0  0  0  0  0  0  0  0  0  0  0  0
   -2.0859   -1.1076   27.3471 H   0  0  0  0  0  0  0  0  0  0  0  0
   -3.3206    3.3096   26.9405 H   0  0  0  0  0  0  0  0  0  0  0  0
   -2.5247    3.1246   25.3586 H   0  0  0  0  0  0  0  0  0  0  0  0
   -0.3828   -6.0934   30.4844 H   0  0  0  0  0  0  0  0  0  0  0  0
    0.1571   -8.7048   30.4867 H   0  0  0  0  0  0  0  0  0  0  0  0
    0.0697   -8.5308   30.3502 H   0  0  0  0  0  0  0  0  0  0  0  0
   -0.5582   -7.9509   34.3627 H   0  0  0  0  0  0  0  0  0  0  0  0
  1  2  1  0
  2  3  1  0
  3  4  1  0
  4  5  2  0
  4  6  1  0
  6  7  2  3
  7  8  1  0
  8  9  2  0
  9 10  1  0
 10 11  1  0
 11 12  2  0
 12 13  2  0
 12 14  1  0
 14 15  1  0
 12 16  1  0
 16 17  1  0
 17 18  1  0
 18 19  2  0
 19 20  1  0
 20 21  2  0
 21 22  1  0
 22 23  2  0
 22 24  1  0
 24 25  1  0
 25 26  1  0
 10 27  2  0
 27 28  1  0
 28 29  1  0
 29 30  1  0
 29 31  2  0
 28 32  2  0
 32  8  1  0
 23 18  1  0
 26 21  1  0
  1 33  1  0
  1 34  1  0
  1 35  1  0
  2 36  1  0
  2 37  1  0
  6 38  1  0
  7 39  1  0
  9 40  1  0
 14 41  1  0
 14 42  1  0
 15 43  1  0
 15 44  1  0
 15 45  1  0
 16 46  1  0
 17 47  1  0
 17 48  1  0
 19 49  1  0
 20 50  1  0
 23 51  1  0
 25 52  1  0
 25 53  1  0
 27 54  1  0
 30 55  1  0
 30 56  1  0
 32 57  1  0
M  END
>  <Energy>  (345) 
70.991293462987301

>  <compound_id>  (345) 
258

>  <target_id>  (345) 
1

>  <reference_id>  (345) 
13

>  <inspiration_ids>  (345) 
[13, 183]

>  <energy_score>  (345) 
90.733848243858

>  <distance_score>  (345) 
0.8563604682857036

>  <path>  (345) 
/opt/xchem-fragalysis-2/maxwin/BulkDock/SCRATCH/505732/C258-P13/C258-P13.minimised.mol

>  <scratch_subdir>  (345) 
/opt/xchem-fragalysis-2/maxwin/BulkDock/SCRATCH/505732/C258-P13

>  <fragmenstein_runtime>  (345) 
10.418066024780273

>  <fragmenstein_outcome>  (345) 
too contorted

>  <fragmenstein_mode>  (345) 
expansion

>  <fragmenstein_error>  (345) 


$$$$
C258-P183
     RDKit          3D

 57 59  0  0  0  0  0  0  0  0999 V2000
   -1.6789   -3.6416   41.0842 C   0  0  0  0  0  0  0  0  0  0  0  0
   -1.0603   -4.8904   40.4872 C   0  0  0  0  0  0  0  0  0  0  0  0
   -0.9828   -4.7158   39.0675 O   0  0  0  0  0  0  0  0  0  0  0  0
   -0.4835   -5.7899   38.4075 C   0  0  0  0  0  0  0  0  0  0  0  0
   -0.0692   -6.8232   38.9009 O   0  0  0  0  0  0  0  0  0  0  0  0
   -0.5198   -5.4792   36.9646 C   0  0  0  0  0  0  0  0  0  0  0  0
   -0.1793   -6.3956   36.0440 C   0  0  0  0  0  0  0  0  0  0  0  0
   -0.1697   -6.1023   34.6020 C   0  0  0  0  0  0  0  0  0  0  0  0
    0.1951   -4.8375   34.1182 C   0  0  0  0  0  0  0  0  0  0  0  0
    0.1407   -4.5680   32.7561 C   0  0  0  0  0  0  0  0  0  0  0  0
    0.3328   -3.2106   32.2586 N   0  0  0  0  0  0  0  0  0  0  0  0
   -0.9518   -2.4507   31.8766 S   0  0  0  0  0  0  0  0  0  0  0  0
   -2.1410   -3.0636   31.3273 O   0  0  0  0  0  0  0  0  0  0  0  0
   -1.4323   -1.4173   33.2411 C   0  0  0  0  0  0  0  0  0  0  0  0
   -2.5006   -0.4172   32.8480 C   0  0  0  0  0  0  0  0  0  0  0  0
   -0.3509   -1.4367   30.6941 N   0  0  0  0  0  0  0  0  0  0  0  0
   -0.4613   -1.7123   29.2728 C   0  0  0  0  0  0  0  0  0  0  0  0
   -0.3916   -0.3999   28.5253 C   0  0  0  0  0  0  0  0  0  0  0  0
    0.7756    0.4002   28.5464 C   0  0  0  0  0  0  0  0  0  0  0  0
    0.7897    1.6685   27.9542 C   0  0  0  0  0  0  0  0  0  0  0  0
   -0.3688    2.1088   27.3527 C   0  0  0  0  0  0  0  0  0  0  0  0
   -1.4957    1.3268   27.3000 C   0  0  0  0  0  0  0  0  0  0  0  0
   -1.5337    0.0695   27.8605 C   0  0  0  0  0  0  0  0  0  0  0  0
   -2.5181    1.9382   26.6478 O   0  0  0  0  0  0  0  0  0  0  0  0
   -1.9534    3.2402   26.4118 C   0  0  0  0  0  0  0  0  0  0  0  0
   -0.5474    3.3123   26.7439 O   0  0  0  0  0  0  0  0  0  0  0  0
   -0.1969   -5.5576   31.8458 C   0  0  0  0  0  0  0  0  0  0  0  0
   -0.5153   -6.8326   32.3023 C   0  0  0  0  0  0  0  0  0  0  0  0
   -0.9760   -7.8606   31.3238 C   0  0  0  0  0  0  0  0  0  0  0  0
   -0.2032   -7.9135   30.1135 N   0  0  0  0  0  0  0  0  0  0  0  0
   -1.9530   -8.4634   31.6489 O   0  0  0  0  0  0  0  0  0  0  0  0
   -0.5237   -7.0999   33.6805 C   0  0  0  0  0  0  0  0  0  0  0  0
   -1.7602   -3.7279   42.1712 H   0  0  0  0  0  0  0  0  0  0  0  0
   -1.0756   -2.7600   40.8435 H   0  0  0  0  0  0  0  0  0  0  0  0
   -2.6764   -3.4674   40.6675 H   0  0  0  0  0  0  0  0  0  0  0  0
   -1.6817   -5.7610   40.7239 H   0  0  0  0  0  0  0  0  0  0  0  0
   -0.0537   -5.0356   40.8949 H   0  0  0  0  0  0  0  0  0  0  0  0
   -0.8384   -4.4770   36.7047 H   0  0  0  0  0  0  0  0  0  0  0  0
    0.0871   -7.4097   36.3449 H   0  0  0  0  0  0  0  0  0  0  0  0
    0.4856   -4.0388   34.7945 H   0  0  0  0  0  0  0  0  0  0  0  0
   -0.5380   -0.9020   33.6044 H   0  0  0  0  0  0  0  0  0  0  0  0
   -1.8031   -2.0770   34.0316 H   0  0  0  0  0  0  0  0  0  0  0  0
   -3.4072   -0.9206   32.4972 H   0  0  0  0  0  0  0  0  0  0  0  0
   -2.1498    0.2368   32.0451 H   0  0  0  0  0  0  0  0  0  0  0  0
   -2.7695    0.2077   33.7050 H   0  0  0  0  0  0  0  0  0  0  0  0
    0.6319   -1.3315   30.9172 H   0  0  0  0  0  0  0  0  0  0  0  0
    0.3421   -2.3788   28.9386 H   0  0  0  0  0  0  0  0  0  0  0  0
   -1.4066   -2.2148   29.0398 H   0  0  0  0  0  0  0  0  0  0  0  0
    1.6727    0.0423   29.0453 H   0  0  0  0  0  0  0  0  0  0  0  0
    1.6754    2.2925   27.9789 H   0  0  0  0  0  0  0  0  0  0  0  0
   -2.4302   -0.5367   27.7908 H   0  0  0  0  0  0  0  0  0  0  0  0
   -2.4964    3.9786   27.0131 H   0  0  0  0  0  0  0  0  0  0  0  0
   -2.0737    3.4879   25.3514 H   0  0  0  0  0  0  0  0  0  0  0  0
   -0.2988   -5.2851   30.7984 H   0  0  0  0  0  0  0  0  0  0  0  0
    0.6450   -7.3344   30.2299 H   0  0  0  0  0  0  0  0  0  0  0  0
    0.5091   -7.1650   30.1355 H   0  0  0  0  0  0  0  0  0  0  0  0
   -0.8489   -8.0797   34.0322 H   0  0  0  0  0  0  0  0  0  0  0  0
  1  2  1  0
  2  3  1  0
  3  4  1  0
  4  5  2  0
  4  6  1  0
  6  7  2  3
  7  8  1  0
  8  9  2  0
  9 10  1  0
 10 11  1  0
 11 12  2  0
 12 13  2  0
 12 14  1  0
 14 15  1  0
 12 16  1  0
 16 17  1  0
 17 18  1  0
 18 19  2  0
 19 20  1  0
 20 21  2  0
 21 22  1  0
 22 23  2  0
 22 24  1  0
 24 25  1  0
 25 26  1  0
 10 27  2  0
 27 28  1  0
 28 29  1  0
 29 30  1  0
 29 31  2  0
 28 32  2  0
 32  8  1  0
 23 18  1  0
 26 21  1  0
  1 33  1  0
  1 34  1  0
  1 35  1  0
  2 36  1  0
  2 37  1  0
  6 38  1  0
  7 39  1  0
  9 40  1  0
 14 41  1  0
 14 42  1  0
 15 43  1  0
 15 44  1  0
 15 45  1  0
 16 46  1  0
 17 47  1  0
 17 48  1  0
 19 49  1  0
 20 50  1  0
 23 51  1  0
 25 52  1  0
 25 53  1  0
 27 54  1  0
 30 55  1  0
 30 56  1  0
 32 57  1  0
M  END
>  <Energy>  (346) 
62.911770170147648

>  <compound_id>  (346) 
258

>  <target_id>  (346) 
1

>  <reference_id>  (346) 
183

>  <inspiration_ids>  (346) 
[13, 183]

>  <energy_score>  (346) 
82.65432495102053

>  <distance_score>  (346) 
1.0064771425419972

>  <path>  (346) 
/opt/xchem-fragalysis-2/maxwin/BulkDock/SCRATCH/505732/C258-P183/C258-P183.minimised.mol

>  <scratch_subdir>  (346) 
/opt/xchem-fragalysis-2/maxwin/BulkDock/SCRATCH/505732/C258-P183

>  <fragmenstein_runtime>  (346) 
11.003046751022339

>  <fragmenstein_outcome>  (346) 
too moved

>  <fragmenstein_mode>  (346) 
expansion

>  <fragmenstein_error>  (346) 


$$$$
C258-P13
     RDKit          3D

 57 59  0  0  0  0  0  0  0  0999 V2000
   -5.8163  -13.5797   29.9678 C   0  0  0  0  0  0  0  0  0  0  0  0
   -4.9956  -11.9956   29.1653 C   0  0  0  0  0  0  0  0  0  0  0  0
   -3.6776  -10.8026   28.5878 O   0  0  0  0  0  0  0  0  0  0  0  0
   -4.3440   -8.6282   28.2680 C   0  0  0  0  0  0  0  0  0  0  0  0
   -5.3575   -8.1905   27.8002 O   0  0  0  0  0  0  0  0  0  0  0  0
   -2.7742   -7.4832   28.8186 C   0  0  0  0  0  0  0  0  0  0  0  0
   -1.9563   -7.3886   30.0036 C   0  0  0  0  0  0  0  0  0  0  0  0
   -0.6955   -6.6816   30.4536 C   0  0  0  0  0  0  0  0  0  0  0  0
   -0.7774   -5.5908   31.3245 C   0  0  0  0  0  0  0  0  0  0  0  0
    0.3114   -4.7730   31.6110 C   0  0  0  0  0  0  0  0  0  0  0  0
    0.0495   -3.4506   32.1903 N   0  0  0  0  0  0  0  0  0  0  0  0
    0.3197   -2.2226   31.2946 S   0  0  0  0  0  0  0  0  0  0  0  0
    1.6277   -1.9777   30.7171 O   0  0  0  0  0  0  0  0  0  0  0  0
   -0.2465   -0.7435   32.0990 C   0  0  0  0  0  0  0  0  0  0  0  0
   -1.7326   -0.7353   32.3969 C   0  0  0  0  0  0  0  0  0  0  0  0
   -0.6486   -2.5254   29.9527 N   0  0  0  0  0  0  0  0  0  0  0  0
   -0.2608   -2.1911   28.5970 C   0  0  0  0  0  0  0  0  0  0  0  0
   -0.4423   -0.7362   28.2551 C   0  0  0  0  0  0  0  0  0  0  0  0
    0.5866    0.2053   28.4844 C   0  0  0  0  0  0  0  0  0  0  0  0
    0.4293    1.5466   28.1211 C   0  0  0  0  0  0  0  0  0  0  0  0
   -0.7569    1.9144   27.5262 C   0  0  0  0  0  0  0  0  0  0  0  0
   -1.7629    1.0085   27.2998 C   0  0  0  0  0  0  0  0  0  0  0  0
   -1.6395   -0.3161   27.6563 C   0  0  0  0  0  0  0  0  0  0  0  0
   -2.8346    1.5668   26.6802 O   0  0  0  0  0  0  0  0  0  0  0  0
   -2.4192    2.9451   26.6041 C   0  0  0  0  0  0  0  0  0  0  0  0
   -1.0698    3.1588   27.0790 O   0  0  0  0  0  0  0  0  0  0  0  0
    1.5517   -5.0533   31.0762 C   0  0  0  0  0  0  0  0  0  0  0  0
    1.6304   -6.0672   30.1377 C   0  0  0  0  0  0  0  0  0  0  0  0
    2.6859   -6.0356   29.0379 C   0  0  0  0  0  0  0  0  0  0  0  0
    3.1043   -4.7052   28.6306 N   0  0  0  0  0  0  0  0  0  0  0  0
    3.0082   -7.1149   28.6258 O   0  0  0  0  0  0  0  0  0  0  0  0
    0.5876   -7.0215   30.0542 C   0  0  0  0  0  0  0  0  0  0  0  0
   -6.4639  -13.4011   30.8506 H   0  0  0  0  0  0  0  0  0  0  0  0
   -6.5628  -13.9756   29.2607 H   0  0  0  0  0  0  0  0  0  0  0  0
   -5.2584  -14.4083   30.4271 H   0  0  0  0  0  0  0  0  0  0  0  0
   -5.5313  -11.9368   28.2302 H   0  0  0  0  0  0  0  0  0  0  0  0
   -5.5709  -11.3399   29.7749 H   0  0  0  0  0  0  0  0  0  0  0  0
   -2.4809   -7.0339   27.8770 H   0  0  0  0  0  0  0  0  0  0  0  0
   -2.3513   -7.7934   30.9510 H   0  0  0  0  0  0  0  0  0  0  0  0
   -1.7061   -5.2859   31.7602 H   0  0  0  0  0  0  0  0  0  0  0  0
    0.0137    0.1024   31.4562 H   0  0  0  0  0  0  0  0  0  0  0  0
    0.3310   -0.6488   33.0244 H   0  0  0  0  0  0  0  0  0  0  0  0
   -2.0319   -1.6146   32.9755 H   0  0  0  0  0  0  0  0  0  0  0  0
   -2.3256   -0.7173   31.4778 H   0  0  0  0  0  0  0  0  0  0  0  0
   -1.9944    0.1556   32.9762 H   0  0  0  0  0  0  0  0  0  0  0  0
   -1.6040   -2.2386   30.1176 H   0  0  0  0  0  0  0  0  0  0  0  0
   -0.8774   -2.7954   27.9273 H   0  0  0  0  0  0  0  0  0  0  0  0
    0.7678   -2.5034   28.3834 H   0  0  0  0  0  0  0  0  0  0  0  0
    1.5301   -0.1108   28.9248 H   0  0  0  0  0  0  0  0  0  0  0  0
    1.2178    2.2724   28.2838 H   0  0  0  0  0  0  0  0  0  0  0  0
   -2.4301   -1.0224   27.4208 H   0  0  0  0  0  0  0  0  0  0  0  0
   -3.0982    3.5562   27.2051 H   0  0  0  0  0  0  0  0  0  0  0  0
   -2.4779    3.2720   25.5599 H   0  0  0  0  0  0  0  0  0  0  0  0
    2.3853   -4.3916   31.2856 H   0  0  0  0  0  0  0  0  0  0  0  0
    2.5270   -3.9992   29.1316 H   0  0  0  0  0  0  0  0  0  0  0  0
    2.7055   -4.0076   29.2890 H   0  0  0  0  0  0  0  0  0  0  0  0
    0.7606   -7.9677   29.5398 H   0  0  0  0  0  0  0  0  0  0  0  0
  1  2  1  0
  2  3  1  0
  3  4  1  0
  4  5  2  0
  4  6  1  0
  6  7  2  3
  7  8  1  0
  8  9  2  0
  9 10  1  0
 10 11  1  0
 11 12  2  0
 12 13  2  0
 12 14  1  0
 14 15  1  0
 12 16  1  0
 16 17  1  0
 17 18  1  0
 18 19  2  0
 19 20  1  0
 20 21  2  0
 21 22  1  0
 22 23  2  0
 22 24  1  0
 24 25  1  0
 25 26  1  0
 10 27  2  0
 27 28  1  0
 28 29  1  0
 29 30  1  0
 29 31  2  0
 28 32  2  0
 32  8  1  0
 23 18  1  0
 26 21  1  0
  1 33  1  0
  1 34  1  0
  1 35  1  0
  2 36  1  0
  2 37  1  0
  6 38  1  0
  7 39  1  0
  9 40  1  0
 14 41  1  0
 14 42  1  0
 15 43  1  0
 15 44  1  0
 15 45  1  0
 16 46  1  0
 17 47  1  0
 17 48  1  0
 19 49  1  0
 20 50  1  0
 23 51  1  0
 25 52  1  0
 25 53  1  0
 27 54  1  0
 30 55  1  0
 30 56  1  0
 32 57  1  0
M  END
>  <Energy>  (347) 
779.67485204411992

>  <compound_id>  (347) 
258

>  <target_id>  (347) 
1

>  <reference_id>  (347) 
13

>  <inspiration_ids>  (347) 
[13, 186]

>  <energy_score>  (347) 
799.4174068249874

>  <distance_score>  (347) 
1.5936279352106144

>  <path>  (347) 
/opt/xchem-fragalysis-2/maxwin/BulkDock/SCRATCH/505732/C258-P13/C258-P13.minimised.mol

>  <scratch_subdir>  (347) 
/opt/xchem-fragalysis-2/maxwin/BulkDock/SCRATCH/505732/C258-P13

>  <fragmenstein_runtime>  (347) 
17.830184936523438

>  <fragmenstein_outcome>  (347) 
too moved

>  <fragmenstein_mode>  (347) 
expansion

>  <fragmenstein_error>  (347) 


$$$$
C258-P186
     RDKit          3D

 57 59  0  0  0  0  0  0  0  0999 V2000
   -3.8793   -9.7896   35.8046 C   0  0  0  0  0  0  0  0  0  0  0  0
   -3.2367   -8.6793   35.0479 C   0  0  0  0  0  0  0  0  0  0  0  0
   -1.9712   -8.2061   35.4657 O   0  0  0  0  0  0  0  0  0  0  0  0
   -1.2408   -7.8164   34.3918 C   0  0  0  0  0  0  0  0  0  0  0  0
   -1.5386   -7.8912   33.2037 O   0  0  0  0  0  0  0  0  0  0  0  0
   -0.0188   -7.1622   34.8454 C   0  0  0  0  0  0  0  0  0  0  0  0
    0.8237   -6.8867   33.8418 C   0  0  0  0  0  0  0  0  0  0  0  0
    1.5454   -5.6402   33.9134 C   0  0  0  0  0  0  0  0  0  0  0  0
    0.7975   -4.5082   33.5838 C   0  0  0  0  0  0  0  0  0  0  0  0
    1.3866   -3.2648   33.6278 C   0  0  0  0  0  0  0  0  0  0  0  0
    0.6219   -2.1283   33.1439 N   0  0  0  0  0  0  0  0  0  0  0  0
    1.0034   -1.5956   31.7556 S   0  0  0  0  0  0  0  0  0  0  0  0
    2.2148   -1.9911   31.0659 O   0  0  0  0  0  0  0  0  0  0  0  0
    0.9807    0.1757   31.9117 C   0  0  0  0  0  0  0  0  0  0  0  0
   -0.3531    0.7351   32.3658 C   0  0  0  0  0  0  0  0  0  0  0  0
   -0.2614   -2.1456   30.7763 N   0  0  0  0  0  0  0  0  0  0  0  0
   -0.1832   -2.1568   29.3170 C   0  0  0  0  0  0  0  0  0  0  0  0
    0.2499   -0.8256   28.7510 C   0  0  0  0  0  0  0  0  0  0  0  0
    1.5675   -0.6749   28.2531 C   0  0  0  0  0  0  0  0  0  0  0  0
    2.0970    0.5884   27.9802 C   0  0  0  0  0  0  0  0  0  0  0  0
    1.2974    1.6769   28.2319 C   0  0  0  0  0  0  0  0  0  0  0  0
   -0.0046    1.5341   28.6491 C   0  0  0  0  0  0  0  0  0  0  0  0
   -0.5760    0.2999   28.8751 C   0  0  0  0  0  0  0  0  0  0  0  0
   -0.6022    2.7335   28.8727 O   0  0  0  0  0  0  0  0  0  0  0  0
    0.5143    3.6303   28.6942 C   0  0  0  0  0  0  0  0  0  0  0  0
    1.6824    2.9788   28.1635 O   0  0  0  0  0  0  0  0  0  0  0  0
    2.7181   -3.1255   34.0037 C   0  0  0  0  0  0  0  0  0  0  0  0
    3.4748   -4.2685   34.2720 C   0  0  0  0  0  0  0  0  0  0  0  0
    4.9321   -4.1584   34.5348 C   0  0  0  0  0  0  0  0  0  0  0  0
    5.6562   -3.4586   33.4996 N   0  0  0  0  0  0  0  0  0  0  0  0
    5.3152   -4.6614   35.5510 O   0  0  0  0  0  0  0  0  0  0  0  0
    2.8855   -5.5351   34.2594 C   0  0  0  0  0  0  0  0  0  0  0  0
   -4.5836   -9.4321   36.5347 H   0  0  0  0  0  0  0  0  0  0  0  0
   -4.5604  -10.3297   35.1568 H   0  0  0  0  0  0  0  0  0  0  0  0
   -3.1577  -10.4350   36.2800 H   0  0  0  0  0  0  0  0  0  0  0  0
   -3.9189   -7.8656   35.1292 H   0  0  0  0  0  0  0  0  0  0  0  0
   -3.1969   -8.9630   34.0129 H   0  0  0  0  0  0  0  0  0  0  0  0
   -0.0268   -6.6822   35.8149 H   0  0  0  0  0  0  0  0  0  0  0  0
    0.7084   -7.3050   32.8441 H   0  0  0  0  0  0  0  0  0  0  0  0
   -0.2457   -4.5884   33.2828 H   0  0  0  0  0  0  0  0  0  0  0  0
    1.3034    0.6146   30.9711 H   0  0  0  0  0  0  0  0  0  0  0  0
    1.7540    0.4268   32.6473 H   0  0  0  0  0  0  0  0  0  0  0  0
   -0.6289    0.3562   33.3548 H   0  0  0  0  0  0  0  0  0  0  0  0
   -1.1642    0.4850   31.6788 H   0  0  0  0  0  0  0  0  0  0  0  0
   -0.2882    1.8248   32.4351 H   0  0  0  0  0  0  0  0  0  0  0  0
   -1.1098   -1.6956   31.0878 H   0  0  0  0  0  0  0  0  0  0  0  0
   -1.1629   -2.4229   28.9025 H   0  0  0  0  0  0  0  0  0  0  0  0
    0.5023   -2.9502   28.9970 H   0  0  0  0  0  0  0  0  0  0  0  0
    2.2130   -1.5459   28.1459 H   0  0  0  0  0  0  0  0  0  0  0  0
    3.1173    0.7114   27.6350 H   0  0  0  0  0  0  0  0  0  0  0  0
   -1.5954    0.2253   29.2339 H   0  0  0  0  0  0  0  0  0  0  0  0
    0.7695    4.0601   29.6711 H   0  0  0  0  0  0  0  0  0  0  0  0
    0.2259    4.4525   28.0332 H   0  0  0  0  0  0  0  0  0  0  0  0
    3.1628   -2.1362   34.0526 H   0  0  0  0  0  0  0  0  0  0  0  0
    5.0115   -3.2629   32.7079 H   0  0  0  0  0  0  0  0  0  0  0  0
    4.9775   -3.0575   32.8231 H   0  0  0  0  0  0  0  0  0  0  0  0
    3.4745   -6.4123   34.5146 H   0  0  0  0  0  0  0  0  0  0  0  0
  1  2  1  0
  2  3  1  0
  3  4  1  0
  4  5  2  0
  4  6  1  0
  6  7  2  3
  7  8  1  0
  8  9  2  0
  9 10  1  0
 10 11  1  0
 11 12  2  0
 12 13  2  0
 12 14  1  0
 14 15  1  0
 12 16  1  0
 16 17  1  0
 17 18  1  0
 18 19  2  0
 19 20  1  0
 20 21  2  0
 21 22  1  0
 22 23  2  0
 22 24  1  0
 24 25  1  0
 25 26  1  0
 10 27  2  0
 27 28  1  0
 28 29  1  0
 29 30  1  0
 29 31  2  0
 28 32  2  0
 32  8  1  0
 23 18  1  0
 26 21  1  0
  1 33  1  0
  1 34  1  0
  1 35  1  0
  2 36  1  0
  2 37  1  0
  6 38  1  0
  7 39  1  0
  9 40  1  0
 14 41  1  0
 14 42  1  0
 15 43  1  0
 15 44  1  0
 15 45  1  0
 16 46  1  0
 17 47  1  0
 17 48  1  0
 19 49  1  0
 20 50  1  0
 23 51  1  0
 25 52  1  0
 25 53  1  0
 27 54  1  0
 30 55  1  0
 30 56  1  0
 32 57  1  0
M  END
>  <Energy>  (348) 
88.737506346556344

>  <compound_id>  (348) 
258

>  <target_id>  (348) 
1

>  <reference_id>  (348) 
186

>  <inspiration_ids>  (348) 
[13, 186]

>  <energy_score>  (348) 
108.48006112742524

>  <distance_score>  (348) 
3.287523095428103

>  <path>  (348) 
/opt/xchem-fragalysis-2/maxwin/BulkDock/SCRATCH/505732/C258-P186/C258-P186.minimised.mol

>  <scratch_subdir>  (348) 
/opt/xchem-fragalysis-2/maxwin/BulkDock/SCRATCH/505732/C258-P186

>  <fragmenstein_runtime>  (348) 
28.38232421875

>  <fragmenstein_outcome>  (348) 
too moved

>  <fragmenstein_mode>  (348) 
expansion

>  <fragmenstein_error>  (348) 


$$$$
C1652-P13
     RDKit          3D

 27 28  0  0  0  0  0  0  0  0999 V2000
   -1.8748   -2.5850   31.9693 N   0  0  0  0  0  0  0  0  0  0  0  0
   -0.5030   -2.4899   31.4535 C   0  0  0  0  0  0  0  0  0  0  0  0
    0.1729   -3.8610   31.3808 C   0  0  0  0  0  0  0  0  0  0  0  0
    0.2736   -4.8622   32.3018 C   0  0  0  0  0  0  0  0  0  0  0  0
   -0.4454   -4.8838   34.2281 I   0  0  0  0  0  0  0  0  0  0  0  0
    0.9885   -6.1549   32.0046 C   0  0  0  0  0  0  0  0  0  0  0  0
    0.8208   -6.3801   30.5365 C   0  0  0  0  0  0  0  0  0  0  0  0
    0.3106   -7.4036   30.0978 O   0  0  0  0  0  0  0  0  0  0  0  0
    1.3012   -5.3650   29.7498 N   0  0  0  0  0  0  0  0  0  0  0  0
    0.9546   -4.1804   30.1444 C   0  0  0  0  0  0  0  0  0  0  0  0
   -0.5417   -1.6186   30.1783 C   0  0  0  0  0  0  0  0  0  0  0  0
    0.0196   -0.3223   30.1465 C   0  0  0  0  0  0  0  0  0  0  0  0
   -0.1733    0.5383   29.0521 C   0  0  0  0  0  0  0  0  0  0  0  0
   -0.9391    0.1258   27.9699 C   0  0  0  0  0  0  0  0  0  0  0  0
   -1.4781   -1.1540   27.9707 C   0  0  0  0  0  0  0  0  0  0  0  0
   -1.2643   -2.0202   29.0478 C   0  0  0  0  0  0  0  0  0  0  0  0
   -2.4890   -2.9809   31.2669 H   0  0  0  0  0  0  0  0  0  0  0  0
   -1.9151   -3.1513   32.8169 H   0  0  0  0  0  0  0  0  0  0  0  0
    0.0713   -1.9209   32.1971 H   0  0  0  0  0  0  0  0  0  0  0  0
    0.5488   -7.0175   32.5182 H   0  0  0  0  0  0  0  0  0  0  0  0
    2.0515   -6.0981   32.2605 H   0  0  0  0  0  0  0  0  0  0  0  0
    1.2988   -3.3217   29.5453 H   0  0  0  0  0  0  0  0  0  0  0  0
    0.5765    0.0487   31.0046 H   0  0  0  0  0  0  0  0  0  0  0  0
    0.2501    1.5393   29.0645 H   0  0  0  0  0  0  0  0  0  0  0  0
   -1.1214    0.7891   27.1296 H   0  0  0  0  0  0  0  0  0  0  0  0
   -2.0865   -1.4843   27.1302 H   0  0  0  0  0  0  0  0  0  0  0  0
   -1.7245   -3.0030   29.0077 H   0  0  0  0  0  0  0  0  0  0  0  0
  1  2  1  0
  2  3  1  0
  3  4  2  0
  4  5  1  0
  4  6  1  0
  6  7  1  0
  7  8  2  0
  7  9  1  0
  9 10  2  0
  2 11  1  0
 11 12  2  0
 12 13  1  0
 13 14  2  0
 14 15  1  0
 15 16  2  0
 10  3  1  0
 16 11  1  0
  1 17  1  0
  1 18  1  0
  2 19  1  0
  6 20  1  0
  6 21  1  0
 10 22  1  0
 12 23  1  0
 13 24  1  0
 14 25  1  0
 15 26  1  0
 16 27  1  0
M  END
>  <Energy>  (349) 
34.821360372911165

>  <compound_id>  (349) 
1652

>  <target_id>  (349) 
1

>  <reference_id>  (349) 
13

>  <inspiration_ids>  (349) 
[13, 189]

>  <energy_score>  (349) 
-14.967911530229316

>  <distance_score>  (349) 
1.7782206387958772

>  <path>  (349) 
/opt/xchem-fragalysis-2/maxwin/BulkDock/SCRATCH/505732/C1652-P13/C1652-P13.minimised.mol

>  <scratch_subdir>  (349) 
/opt/xchem-fragalysis-2/maxwin/BulkDock/SCRATCH/505732/C1652-P13

>  <fragmenstein_runtime>  (349) 
82.6278817653656

>  <fragmenstein_outcome>  (349) 
too moved

>  <fragmenstein_mode>  (349) 
expansion

>  <fragmenstein_error>  (349) 


$$$$
C1652-P189
     RDKit          3D

 27 28  0  0  0  0  0  0  0  0999 V2000
   -1.9349   -2.5703   32.0082 N   0  0  0  0  0  0  0  0  0  0  0  0
   -0.5809   -2.4764   31.4430 C   0  0  0  0  0  0  0  0  0  0  0  0
    0.0719   -3.8533   31.3407 C   0  0  0  0  0  0  0  0  0  0  0  0
    0.2140   -4.8412   32.2696 C   0  0  0  0  0  0  0  0  0  0  0  0
   -0.3639   -4.8053   34.2433 I   0  0  0  0  0  0  0  0  0  0  0  0
    0.8686   -6.1566   31.9433 C   0  0  0  0  0  0  0  0  0  0  0  0
    0.6013   -6.3952   30.4901 C   0  0  0  0  0  0  0  0  0  0  0  0
    0.0379   -7.4108   30.0989 O   0  0  0  0  0  0  0  0  0  0  0  0
    1.0555   -5.4008   29.6624 N   0  0  0  0  0  0  0  0  0  0  0  0
    0.7629   -4.2033   30.0611 C   0  0  0  0  0  0  0  0  0  0  0  0
   -0.6582   -1.5982   30.1754 C   0  0  0  0  0  0  0  0  0  0  0  0
   -0.0288   -0.3346   30.1122 C   0  0  0  0  0  0  0  0  0  0  0  0
   -0.2519    0.5465   29.0411 C   0  0  0  0  0  0  0  0  0  0  0  0
   -1.1148    0.1871   28.0143 C   0  0  0  0  0  0  0  0  0  0  0  0
   -1.7192   -1.0633   28.0408 C   0  0  0  0  0  0  0  0  0  0  0  0
   -1.4760   -1.9521   29.0929 C   0  0  0  0  0  0  0  0  0  0  0  0
   -2.5730   -2.9747   31.3329 H   0  0  0  0  0  0  0  0  0  0  0  0
   -1.9406   -3.1386   32.8558 H   0  0  0  0  0  0  0  0  0  0  0  0
    0.0215   -1.9157   32.1703 H   0  0  0  0  0  0  0  0  0  0  0  0
    0.4376   -6.9990   32.4962 H   0  0  0  0  0  0  0  0  0  0  0  0
    1.9459   -6.1248   32.1321 H   0  0  0  0  0  0  0  0  0  0  0  0
    1.0853   -3.3597   29.4292 H   0  0  0  0  0  0  0  0  0  0  0  0
    0.6078   -0.0030   30.9302 H   0  0  0  0  0  0  0  0  0  0  0  0
    0.2281    1.5216   29.0284 H   0  0  0  0  0  0  0  0  0  0  0  0
   -1.3156    0.8694   27.1941 H   0  0  0  0  0  0  0  0  0  0  0  0
   -2.3912   -1.3568   27.2354 H   0  0  0  0  0  0  0  0  0  0  0  0
   -1.9873   -2.9102   29.0716 H   0  0  0  0  0  0  0  0  0  0  0  0
  1  2  1  0
  2  3  1  0
  3  4  2  0
  4  5  1  0
  4  6  1  0
  6  7  1  0
  7  8  2  0
  7  9  1  0
  9 10  2  0
  2 11  1  0
 11 12  2  0
 12 13  1  0
 13 14  2  0
 14 15  1  0
 15 16  2  0
 10  3  1  0
 16 11  1  0
  1 17  1  0
  1 18  1  0
  2 19  1  0
  6 20  1  0
  6 21  1  0
 10 22  1  0
 12 23  1  0
 13 24  1  0
 14 25  1  0
 15 26  1  0
 16 27  1  0
M  END
>  <Energy>  (350) 
34.695460125199048

>  <compound_id>  (350) 
1652

>  <target_id>  (350) 
1

>  <reference_id>  (350) 
189

>  <inspiration_ids>  (350) 
[13, 189]

>  <energy_score>  (350) 
-15.093811777942278

>  <distance_score>  (350) 
1.7729497031648038

>  <path>  (350) 
/opt/xchem-fragalysis-2/maxwin/BulkDock/SCRATCH/505732/C1652-P189/C1652-P189.minimised.mol

>  <scratch_subdir>  (350) 
/opt/xchem-fragalysis-2/maxwin/BulkDock/SCRATCH/505732/C1652-P189

>  <fragmenstein_runtime>  (350) 
82.64505529403687

>  <fragmenstein_outcome>  (350) 
too moved

>  <fragmenstein_mode>  (350) 
expansion

>  <fragmenstein_error>  (350) 


$$$$
C1656-P13
     RDKit          3D

 32 33  0  0  0  0  0  0  0  0999 V2000
    4.3925   -2.5717   26.9857 C   0  0  0  0  0  0  0  0  0  0  0  0
    4.0780   -1.9425   28.3232 C   0  0  0  0  0  0  0  0  0  0  0  0
    4.8298   -1.9600   29.2275 O   0  0  0  0  0  0  0  0  0  0  0  0
    2.7157   -1.2850   28.1911 N   0  0  0  0  0  0  0  0  0  0  0  0
    1.6176   -2.2150   28.6237 C   0  0  0  0  0  0  0  0  0  0  0  0
    0.2452   -1.6254   28.3354 C   0  0  0  0  0  0  0  0  0  0  0  0
   -0.8670   -2.4838   28.8959 C   0  0  0  0  0  0  0  0  0  0  0  0
   -0.6663   -2.7642   30.2704 O   0  0  0  0  0  0  0  0  0  0  0  0
    0.4725   -0.2232   28.8169 C   0  0  0  0  0  0  0  0  0  0  0  0
   -0.1614    0.2246   30.0980 C   0  0  0  0  0  0  0  0  0  0  0  0
   -0.0811    1.4394   30.5339 N   0  0  0  0  0  0  0  0  0  0  0  0
    0.6035    2.3683   29.7832 C   0  0  0  0  0  0  0  0  0  0  0  0
    1.2434    3.2698   30.3156 O   0  0  0  0  0  0  0  0  0  0  0  0
    0.5528    2.2683   28.2744 C   0  0  0  0  0  0  0  0  0  0  0  0
    0.1678    0.8767   27.7791 C   0  0  0  0  0  0  0  0  0  0  0  0
   -1.9275    0.9472   27.1613 I   0  0  0  0  0  0  0  0  0  0  0  0
    1.9745   -0.3864   29.1269 C   0  0  0  0  0  0  0  0  0  0  0  0
    5.3938   -3.0115   27.0201 H   0  0  0  0  0  0  0  0  0  0  0  0
    4.3782   -1.8078   26.2040 H   0  0  0  0  0  0  0  0  0  0  0  0
    3.6771   -3.3645   26.7562 H   0  0  0  0  0  0  0  0  0  0  0  0
    1.7334   -3.1232   28.0161 H   0  0  0  0  0  0  0  0  0  0  0  0
    1.7777   -2.5857   29.6524 H   0  0  0  0  0  0  0  0  0  0  0  0
    0.1066   -1.5877   27.2610 H   0  0  0  0  0  0  0  0  0  0  0  0
   -0.8822   -3.4430   28.3717 H   0  0  0  0  0  0  0  0  0  0  0  0
   -1.8406   -2.0018   28.7757 H   0  0  0  0  0  0  0  0  0  0  0  0
   -1.3956   -3.3506   30.5360 H   0  0  0  0  0  0  0  0  0  0  0  0
   -0.6947   -0.4995   30.7265 H   0  0  0  0  0  0  0  0  0  0  0  0
    1.5697    2.4883   27.9226 H   0  0  0  0  0  0  0  0  0  0  0  0
   -0.0897    3.0695   27.8950 H   0  0  0  0  0  0  0  0  0  0  0  0
    0.7431    0.6791   26.8728 H   0  0  0  0  0  0  0  0  0  0  0  0
    2.2034   -0.6425   30.1789 H   0  0  0  0  0  0  0  0  0  0  0  0
    2.4965    0.5725   29.0097 H   0  0  0  0  0  0  0  0  0  0  0  0
  1  2  1  0
  2  3  2  0
  2  4  1  0
  4  5  1  0
  5  6  1  0
  6  7  1  0
  7  8  1  0
  6  9  1  0
  9 10  1  0
 10 11  2  0
 11 12  1  0
 12 13  2  0
 12 14  1  0
 14 15  1  0
 15 16  1  0
  9 17  1  0
 17  4  1  0
 15  9  1  0
  1 18  1  0
  1 19  1  0
  1 20  1  0
  5 21  1  0
  5 22  1  0
  6 23  1  0
  7 24  1  0
  7 25  1  0
  8 26  1  0
 10 27  1  0
 14 28  1  0
 14 29  1  0
 15 30  1  0
 17 31  1  0
 17 32  1  0
M  END
>  <Energy>  (351) 
63.50559999651756

>  <compound_id>  (351) 
1656

>  <target_id>  (351) 
1

>  <reference_id>  (351) 
13

>  <inspiration_ids>  (351) 
[13, 197]

>  <energy_score>  (351) 
27.009937019077938

>  <distance_score>  (351) 
4.640782542407239

>  <path>  (351) 
/opt/xchem-fragalysis-2/maxwin/BulkDock/SCRATCH/505732/C1656-P13/C1656-P13.minimised.mol

>  <scratch_subdir>  (351) 
/opt/xchem-fragalysis-2/maxwin/BulkDock/SCRATCH/505732/C1656-P13

>  <fragmenstein_runtime>  (351) 
2.8754806518554688

>  <fragmenstein_outcome>  (351) 
too moved

>  <fragmenstein_mode>  (351) 
expansion

>  <fragmenstein_error>  (351) 


$$$$
C1656-P197
     RDKit          3D

 32 33  0  0  0  0  0  0  0  0999 V2000
    2.0991   -5.5820   29.2848 C   0  0  0  0  0  0  0  0  0  0  0  0
    2.7519   -4.3528   28.7064 C   0  0  0  0  0  0  0  0  0  0  0  0
    3.8834   -4.3236   28.3899 O   0  0  0  0  0  0  0  0  0  0  0  0
    1.7151   -3.2510   28.7374 N   0  0  0  0  0  0  0  0  0  0  0  0
    1.7006   -2.5557   30.0681 C   0  0  0  0  0  0  0  0  0  0  0  0
    0.5507   -1.5704   30.2062 C   0  0  0  0  0  0  0  0  0  0  0  0
   -0.7948   -2.2560   30.4276 C   0  0  0  0  0  0  0  0  0  0  0  0
   -0.9880   -3.4730   29.7444 O   0  0  0  0  0  0  0  0  0  0  0  0
    0.8484   -0.8129   28.9496 C   0  0  0  0  0  0  0  0  0  0  0  0
    1.7397    0.3595   29.3729 C   0  0  0  0  0  0  0  0  0  0  0  0
    1.4008    1.6041   29.4532 N   0  0  0  0  0  0  0  0  0  0  0  0
    0.1483    2.0183   29.0857 C   0  0  0  0  0  0  0  0  0  0  0  0
   -0.1375    3.2078   29.0072 O   0  0  0  0  0  0  0  0  0  0  0  0
   -0.8958    0.9615   28.8404 C   0  0  0  0  0  0  0  0  0  0  0  0
   -0.2260   -0.1735   28.0848 C   0  0  0  0  0  0  0  0  0  0  0  0
   -1.6200   -1.3928   27.1644 I   0  0  0  0  0  0  0  0  0  0  0  0
    1.7923   -1.8201   28.2790 C   0  0  0  0  0  0  0  0  0  0  0  0
    2.3643   -6.4476   28.6731 H   0  0  0  0  0  0  0  0  0  0  0  0
    1.0116   -5.4929   29.3252 H   0  0  0  0  0  0  0  0  0  0  0  0
    2.4662   -5.7151   30.3052 H   0  0  0  0  0  0  0  0  0  0  0  0
    1.5669   -3.3465   30.8212 H   0  0  0  0  0  0  0  0  0  0  0  0
    2.6957   -2.1500   30.3293 H   0  0  0  0  0  0  0  0  0  0  0  0
    0.7152   -0.9448   31.0945 H   0  0  0  0  0  0  0  0  0  0  0  0
   -1.6437   -1.5892   30.2573 H   0  0  0  0  0  0  0  0  0  0  0  0
   -0.8532   -2.5176   31.4916 H   0  0  0  0  0  0  0  0  0  0  0  0
   -1.2221   -3.2948   28.8087 H   0  0  0  0  0  0  0  0  0  0  0  0
    2.7679    0.1237   29.7029 H   0  0  0  0  0  0  0  0  0  0  0  0
   -1.7184    1.4114   28.2765 H   0  0  0  0  0  0  0  0  0  0  0  0
   -1.3026    0.6455   29.8067 H   0  0  0  0  0  0  0  0  0  0  0  0
    0.3474    0.2628   27.2694 H   0  0  0  0  0  0  0  0  0  0  0  0
    1.5593   -1.8855   27.2071 H   0  0  0  0  0  0  0  0  0  0  0  0
    2.8550   -1.5203   28.2633 H   0  0  0  0  0  0  0  0  0  0  0  0
  1  2  1  0
  2  3  2  0
  2  4  1  0
  4  5  1  0
  5  6  1  0
  6  7  1  0
  7  8  1  0
  6  9  1  0
  9 10  1  0
 10 11  2  0
 11 12  1  0
 12 13  2  0
 12 14  1  0
 14 15  1  0
 15 16  1  0
  9 17  1  0
 17  4  1  0
 15  9  1  0
  1 18  1  0
  1 19  1  0
  1 20  1  0
  5 21  1  0
  5 22  1  0
  6 23  1  0
  7 24  1  0
  7 25  1  0
  8 26  1  0
 10 27  1  0
 14 28  1  0
 14 29  1  0
 15 30  1  0
 17 31  1  0
 17 32  1  0
M  END
>  <Energy>  (352) 
75.666531187453742

>  <compound_id>  (352) 
1656

>  <target_id>  (352) 
1

>  <reference_id>  (352) 
197

>  <inspiration_ids>  (352) 
[13, 197]

>  <energy_score>  (352) 
39.17086821001567

>  <distance_score>  (352) 
3.974372724591577

>  <path>  (352) 
/opt/xchem-fragalysis-2/maxwin/BulkDock/SCRATCH/505732/C1656-P197/C1656-P197.minimised.mol

>  <scratch_subdir>  (352) 
/opt/xchem-fragalysis-2/maxwin/BulkDock/SCRATCH/505732/C1656-P197

>  <fragmenstein_runtime>  (352) 
2.0243754386901855

>  <fragmenstein_outcome>  (352) 
too moved

>  <fragmenstein_mode>  (352) 
expansion

>  <fragmenstein_error>  (352) 


$$$$
C1663-P15
     RDKit          3D

 38 39  0  0  0  0  0  0  0  0999 V2000
   10.7663    0.7871   14.9595 N   0  0  0  0  0  0  0  0  0  0  0  0
   12.1893    1.1471   14.8430 C   0  0  0  0  0  0  0  0  0  0  0  0
   12.9487    0.9654   16.1630 C   0  0  0  0  0  0  0  0  0  0  0  0
   14.0034    2.0418   16.3373 C   0  0  0  0  0  0  0  0  0  0  0  0
   14.2357    2.9369   15.5188 O   0  0  0  0  0  0  0  0  0  0  0  0
   14.8312    1.9950   17.6009 C   0  0  0  0  0  0  0  0  0  0  0  0
   16.1441    1.8692   17.0712 O   0  0  0  0  0  0  0  0  0  0  0  0
   14.5887    0.8114   18.4785 C   0  0  0  0  0  0  0  0  0  0  0  0
   15.2653    0.9083   20.4383 I   0  0  0  0  0  0  0  0  0  0  0  0
   14.0115   -0.3106   18.0192 C   0  0  0  0  0  0  0  0  0  0  0  0
   13.5439   -0.4602   16.5721 C   0  0  0  0  0  0  0  0  0  0  0  0
   12.4643   -1.5587   16.3930 C   0  0  0  0  0  0  0  0  0  0  0  0
   12.9111   -3.0237   16.5328 C   0  0  0  0  0  0  0  0  0  0  0  0
   14.3422   -3.2471   16.9849 C   0  0  0  0  0  0  0  0  0  0  0  0
   15.3569   -2.2875   16.3552 C   0  0  0  0  0  0  0  0  0  0  0  0
   14.7667   -0.9772   15.7629 C   0  0  0  0  0  0  0  0  0  0  0  0
   14.2984   -1.2422   14.4444 O   0  0  0  0  0  0  0  0  0  0  0  0
   15.3035   -1.1401   13.4529 C   0  0  0  0  0  0  0  0  0  0  0  0
   14.7044   -1.3474   12.2561 F   0  0  0  0  0  0  0  0  0  0  0  0
   15.7632    0.1330   13.4441 F   0  0  0  0  0  0  0  0  0  0  0  0
   10.6517   -0.2036   14.7182 H   0  0  0  0  0  0  0  0  0  0  0  0
   10.2667    1.2386   14.1911 H   0  0  0  0  0  0  0  0  0  0  0  0
   12.6491    0.5872   14.0242 H   0  0  0  0  0  0  0  0  0  0  0  0
   12.2030    2.1981   14.5332 H   0  0  0  0  0  0  0  0  0  0  0  0
   12.2227    1.2483   16.9322 H   0  0  0  0  0  0  0  0  0  0  0  0
   14.7147    2.9433   18.1354 H   0  0  0  0  0  0  0  0  0  0  0  0
   16.2603    2.6254   16.4611 H   0  0  0  0  0  0  0  0  0  0  0  0
   13.9507   -1.1675   18.6804 H   0  0  0  0  0  0  0  0  0  0  0  0
   11.6242   -1.3491   17.0378 H   0  0  0  0  0  0  0  0  0  0  0  0
   12.0418   -1.4980   15.3848 H   0  0  0  0  0  0  0  0  0  0  0  0
   12.2335   -3.5607   17.2027 H   0  0  0  0  0  0  0  0  0  0  0  0
   12.7827   -3.5054   15.5562 H   0  0  0  0  0  0  0  0  0  0  0  0
   14.3925   -3.1664   18.0767 H   0  0  0  0  0  0  0  0  0  0  0  0
   14.6378   -4.2817   16.7701 H   0  0  0  0  0  0  0  0  0  0  0  0
   15.8986   -2.8352   15.5756 H   0  0  0  0  0  0  0  0  0  0  0  0
   16.1052   -2.0347   17.1173 H   0  0  0  0  0  0  0  0  0  0  0  0
   15.5581   -0.2216   15.7241 H   0  0  0  0  0  0  0  0  0  0  0  0
   16.1252   -1.8491   13.5842 H   0  0  0  0  0  0  0  0  0  0  0  0
  1  2  1  0
  2  3  1  0
  3  4  1  0
  4  5  2  0
  4  6  1  0
  6  7  1  0
  6  8  1  0
  8  9  1  0
  8 10  2  0
 10 11  1  0
 11 12  1  0
 12 13  1  0
 13 14  1  0
 14 15  1  0
 15 16  1  0
 16 17  1  0
 17 18  1  0
 18 19  1  0
 18 20  1  0
 11  3  1  0
 16 11  1  0
  1 21  1  0
  1 22  1  0
  2 23  1  0
  2 24  1  0
  3 25  1  0
  6 26  1  0
  7 27  1  0
 10 28  1  0
 12 29  1  0
 12 30  1  0
 13 31  1  0
 13 32  1  0
 14 33  1  0
 14 34  1  0
 15 35  1  0
 15 36  1  0
 16 37  1  0
 18 38  1  0
M  END
>  <Energy>  (353) 
69.273520466773519

>  <compound_id>  (353) 
1663

>  <target_id>  (353) 
1

>  <reference_id>  (353) 
15

>  <inspiration_ids>  (353) 
[15, 5]

>  <energy_score>  (353) 
-51.51657869720333

>  <distance_score>  (353) 
2.1317785597314836

>  <path>  (353) 
/opt/xchem-fragalysis-2/maxwin/BulkDock/SCRATCH/505732/C1663-P15/C1663-P15.minimised.mol

>  <scratch_subdir>  (353) 
/opt/xchem-fragalysis-2/maxwin/BulkDock/SCRATCH/505732/C1663-P15

>  <fragmenstein_runtime>  (353) 
20.592652559280396

>  <fragmenstein_outcome>  (353) 
too moved

>  <fragmenstein_mode>  (353) 
expansion

>  <fragmenstein_error>  (353) 


$$$$
C1663-P5
     RDKit          3D

 38 39  0  0  0  0  0  0  0  0999 V2000
   11.1902    1.9260   14.7029 N   0  0  0  0  0  0  0  0  0  0  0  0
   12.3260    0.9857   14.6858 C   0  0  0  0  0  0  0  0  0  0  0  0
   12.9379    0.8775   16.0849 C   0  0  0  0  0  0  0  0  0  0  0  0
   13.8630    2.0598   16.3497 C   0  0  0  0  0  0  0  0  0  0  0  0
   13.8850    3.0855   15.6585 O   0  0  0  0  0  0  0  0  0  0  0  0
   14.8303    1.9631   17.5011 C   0  0  0  0  0  0  0  0  0  0  0  0
   16.0657    1.7856   16.8212 O   0  0  0  0  0  0  0  0  0  0  0  0
   14.6296    0.7889   18.3959 C   0  0  0  0  0  0  0  0  0  0  0  0
   15.3418    0.9140   20.3384 I   0  0  0  0  0  0  0  0  0  0  0  0
   14.0682   -0.3459   17.9529 C   0  0  0  0  0  0  0  0  0  0  0  0
   13.5822   -0.5148   16.5142 C   0  0  0  0  0  0  0  0  0  0  0  0
   12.4944   -1.6258   16.4160 C   0  0  0  0  0  0  0  0  0  0  0  0
   12.9678   -3.0854   16.4726 C   0  0  0  0  0  0  0  0  0  0  0  0
   14.4035   -3.2905   16.9154 C   0  0  0  0  0  0  0  0  0  0  0  0
   15.3952   -2.3215   16.2639 C   0  0  0  0  0  0  0  0  0  0  0  0
   14.7713   -1.0304   15.6688 C   0  0  0  0  0  0  0  0  0  0  0  0
   14.2426   -1.3130   14.3770 O   0  0  0  0  0  0  0  0  0  0  0  0
   15.2044   -1.2558   13.3400 C   0  0  0  0  0  0  0  0  0  0  0  0
   14.5421   -1.4303   12.1717 F   0  0  0  0  0  0  0  0  0  0  0  0
   15.7217   -0.0045   13.3090 F   0  0  0  0  0  0  0  0  0  0  0  0
   10.7766    1.9237   13.7710 H   0  0  0  0  0  0  0  0  0  0  0  0
   11.5756    2.8670   14.8323 H   0  0  0  0  0  0  0  0  0  0  0  0
   11.9318    0.0381   14.3193 H   0  0  0  0  0  0  0  0  0  0  0  0
   13.0642    1.3226   13.9489 H   0  0  0  0  0  0  0  0  0  0  0  0
   12.1140    1.0543   16.7758 H   0  0  0  0  0  0  0  0  0  0  0  0
   14.8247    2.9109   18.0496 H   0  0  0  0  0  0  0  0  0  0  0  0
   16.1926    2.5900   16.2804 H   0  0  0  0  0  0  0  0  0  0  0  0
   14.0204   -1.1972   18.6238 H   0  0  0  0  0  0  0  0  0  0  0  0
   11.7571   -1.4506   17.1780 H   0  0  0  0  0  0  0  0  0  0  0  0
   11.9166   -1.5448   15.4909 H   0  0  0  0  0  0  0  0  0  0  0  0
   12.2992   -3.6733   17.1097 H   0  0  0  0  0  0  0  0  0  0  0  0
   12.8517   -3.5097   15.4696 H   0  0  0  0  0  0  0  0  0  0  0  0
   14.4644   -3.2038   18.0060 H   0  0  0  0  0  0  0  0  0  0  0  0
   14.7120   -4.3184   16.6970 H   0  0  0  0  0  0  0  0  0  0  0  0
   15.9348   -2.8665   15.4812 H   0  0  0  0  0  0  0  0  0  0  0  0
   16.1499   -2.0492   17.0127 H   0  0  0  0  0  0  0  0  0  0  0  0
   15.5508   -0.2683   15.5833 H   0  0  0  0  0  0  0  0  0  0  0  0
   15.9971   -2.0027   13.4329 H   0  0  0  0  0  0  0  0  0  0  0  0
  1  2  1  0
  2  3  1  0
  3  4  1  0
  4  5  2  0
  4  6  1  0
  6  7  1  0
  6  8  1  0
  8  9  1  0
  8 10  2  0
 10 11  1  0
 11 12  1  0
 12 13  1  0
 13 14  1  0
 14 15  1  0
 15 16  1  0
 16 17  1  0
 17 18  1  0
 18 19  1  0
 18 20  1  0
 11  3  1  0
 16 11  1  0
  1 21  1  0
  1 22  1  0
  2 23  1  0
  2 24  1  0
  3 25  1  0
  6 26  1  0
  7 27  1  0
 10 28  1  0
 12 29  1  0
 12 30  1  0
 13 31  1  0
 13 32  1  0
 14 33  1  0
 14 34  1  0
 15 35  1  0
 15 36  1  0
 16 37  1  0
 18 38  1  0
M  END
>  <Energy>  (354) 
67.348667616180293

>  <compound_id>  (354) 
1663

>  <target_id>  (354) 
1

>  <reference_id>  (354) 
5

>  <inspiration_ids>  (354) 
[15, 5]

>  <energy_score>  (354) 
-53.44143154779641

>  <distance_score>  (354) 
2.1332631242186766

>  <path>  (354) 
/opt/xchem-fragalysis-2/maxwin/BulkDock/SCRATCH/505732/C1663-P5/C1663-P5.minimised.mol

>  <scratch_subdir>  (354) 
/opt/xchem-fragalysis-2/maxwin/BulkDock/SCRATCH/505732/C1663-P5

>  <fragmenstein_runtime>  (354) 
20.589751958847046

>  <fragmenstein_outcome>  (354) 
too moved

>  <fragmenstein_mode>  (354) 
expansion

>  <fragmenstein_error>  (354) 


$$$$
C1664-P15
     RDKit          3D

 18 19  0  0  0  0  0  0  0  0999 V2000
   14.3911   -4.9794   18.3119 O   0  0  0  0  0  0  0  0  0  0  0  0
   14.0060   -3.9410   17.7695 C   0  0  0  0  0  0  0  0  0  0  0  0
   12.8612   -4.0453   16.7604 C   0  0  0  0  0  0  0  0  0  0  0  0
   12.6090   -2.7894   16.0290 C   0  0  0  0  0  0  0  0  0  0  0  0
   13.2451   -1.6549   16.2911 C   0  0  0  0  0  0  0  0  0  0  0  0
   14.2435   -1.6733   17.3504 C   0  0  0  0  0  0  0  0  0  0  0  0
   14.5851   -2.7119   18.0406 N   0  0  0  0  0  0  0  0  0  0  0  0
   12.8055   -0.5689   15.3966 C   0  0  0  0  0  0  0  0  0  0  0  0
   11.9804   -1.2663   14.3914 N   0  0  0  0  0  0  0  0  0  0  0  0
   11.6583   -2.6034   14.9079 C   0  0  0  0  0  0  0  0  0  0  0  0
   13.1449   -4.8335   16.0654 H   0  0  0  0  0  0  0  0  0  0  0  0
   11.9616   -4.3580   17.2885 H   0  0  0  0  0  0  0  0  0  0  0  0
   14.7277   -0.7076   17.5701 H   0  0  0  0  0  0  0  0  0  0  0  0
   12.2078    0.1679   15.9430 H   0  0  0  0  0  0  0  0  0  0  0  0
   13.6463   -0.0680   14.9091 H   0  0  0  0  0  0  0  0  0  0  0  0
   11.1267   -0.7659   14.1466 H   0  0  0  0  0  0  0  0  0  0  0  0
   11.7866   -3.3396   14.1136 H   0  0  0  0  0  0  0  0  0  0  0  0
   10.6258   -2.6387   15.2649 H   0  0  0  0  0  0  0  0  0  0  0  0
  1  2  2  0
  2  3  1  0
  3  4  1  0
  4  5  2  0
  5  6  1  0
  6  7  2  0
  5  8  1  0
  8  9  1  0
  9 10  1  0
  7  2  1  0
 10  4  1  0
  3 11  1  0
  3 12  1  0
  6 13  1  0
  8 14  1  0
  8 15  1  0
  9 16  1  0
 10 17  1  0
 10 18  1  0
M  END
>  <Energy>  (355) 
15.255518853373008

>  <compound_id>  (355) 
1664

>  <target_id>  (355) 
1

>  <reference_id>  (355) 
15

>  <inspiration_ids>  (355) 
[15, 6]

>  <energy_score>  (355) 
-20.134722475222873

>  <distance_score>  (355) 
0.900815168748608

>  <path>  (355) 
/opt/xchem-fragalysis-2/maxwin/BulkDock/SCRATCH/505732/C1664-P15/C1664-P15.minimised.mol

>  <scratch_subdir>  (355) 
/opt/xchem-fragalysis-2/maxwin/BulkDock/SCRATCH/505732/C1664-P15

>  <fragmenstein_runtime>  (355) 
0.5204243659973145

>  <fragmenstein_outcome>  (355) 
acceptable

>  <fragmenstein_mode>  (355) 
expansion

>  <fragmenstein_error>  (355) 


$$$$
C1664-P6
     RDKit          3D

 18 19  0  0  0  0  0  0  0  0999 V2000
   13.9697   -4.2584   18.9111 O   0  0  0  0  0  0  0  0  0  0  0  0
   13.8079   -3.4464   18.0004 C   0  0  0  0  0  0  0  0  0  0  0  0
   12.9077   -3.8266   16.8164 C   0  0  0  0  0  0  0  0  0  0  0  0
   12.5324   -2.6535   16.0023 C   0  0  0  0  0  0  0  0  0  0  0  0
   13.0835   -1.4549   16.1519 C   0  0  0  0  0  0  0  0  0  0  0  0
   14.1422   -1.3252   17.1415 C   0  0  0  0  0  0  0  0  0  0  0  0
   14.4846   -2.2380   17.9894 N   0  0  0  0  0  0  0  0  0  0  0  0
   12.5688   -0.4948   15.1581 C   0  0  0  0  0  0  0  0  0  0  0  0
   11.8179   -1.3505   14.2237 N   0  0  0  0  0  0  0  0  0  0  0  0
   11.5626   -2.6374   14.8836 C   0  0  0  0  0  0  0  0  0  0  0  0
   13.4586   -4.5401   16.2026 H   0  0  0  0  0  0  0  0  0  0  0  0
   12.0125   -4.3158   17.2041 H   0  0  0  0  0  0  0  0  0  0  0  0
   14.6818   -0.3639   17.1459 H   0  0  0  0  0  0  0  0  0  0  0  0
   11.9063    0.2367   15.6322 H   0  0  0  0  0  0  0  0  0  0  0  0
   13.3709    0.0270   14.6291 H   0  0  0  0  0  0  0  0  0  0  0  0
   10.9392   -0.9436   13.8977 H   0  0  0  0  0  0  0  0  0  0  0  0
   11.7140   -3.4475   14.1705 H   0  0  0  0  0  0  0  0  0  0  0  0
   10.5374   -2.6804   15.2595 H   0  0  0  0  0  0  0  0  0  0  0  0
  1  2  2  0
  2  3  1  0
  3  4  1  0
  4  5  2  0
  5  6  1  0
  6  7  2  0
  5  8  1  0
  8  9  1  0
  9 10  1  0
  7  2  1  0
 10  4  1  0
  3 11  1  0
  3 12  1  0
  6 13  1  0
  8 14  1  0
  8 15  1  0
  9 16  1  0
 10 17  1  0
 10 18  1  0
M  END
>  <Energy>  (356) 
15.375100271948089

>  <compound_id>  (356) 
1664

>  <target_id>  (356) 
1

>  <reference_id>  (356) 
6

>  <inspiration_ids>  (356) 
[15, 6]

>  <energy_score>  (356) 
-20.01514105664694

>  <distance_score>  (356) 
0.9279146454414992

>  <path>  (356) 
/opt/xchem-fragalysis-2/maxwin/BulkDock/SCRATCH/505732/C1664-P6/C1664-P6.minimised.mol

>  <scratch_subdir>  (356) 
/opt/xchem-fragalysis-2/maxwin/BulkDock/SCRATCH/505732/C1664-P6

>  <fragmenstein_runtime>  (356) 
0.6273200511932373

>  <fragmenstein_outcome>  (356) 
acceptable

>  <fragmenstein_mode>  (356) 
expansion

>  <fragmenstein_error>  (356) 


$$$$
C1664-P15
     RDKit          3D

 18 19  0  0  0  0  0  0  0  0999 V2000
   14.4255   -4.9849   18.3087 O   0  0  0  0  0  0  0  0  0  0  0  0
   14.0593   -3.9467   17.7527 C   0  0  0  0  0  0  0  0  0  0  0  0
   12.9147   -4.0440   16.7431 C   0  0  0  0  0  0  0  0  0  0  0  0
   12.6140   -2.7660   16.0737 C   0  0  0  0  0  0  0  0  0  0  0  0
   13.2585   -1.6353   16.3337 C   0  0  0  0  0  0  0  0  0  0  0  0
   14.3013   -1.6760   17.3468 C   0  0  0  0  0  0  0  0  0  0  0  0
   14.6694   -2.7278   18.0029 N   0  0  0  0  0  0  0  0  0  0  0  0
   12.6892   -0.5128   15.5641 C   0  0  0  0  0  0  0  0  0  0  0  0
   11.3907   -1.0558   15.1179 N   0  0  0  0  0  0  0  0  0  0  0  0
   11.5527   -2.5239   15.0673 C   0  0  0  0  0  0  0  0  0  0  0  0
   12.0289   -4.4025   17.2680 H   0  0  0  0  0  0  0  0  0  0  0  0
   13.2155   -4.7923   16.0138 H   0  0  0  0  0  0  0  0  0  0  0  0
   14.8006   -0.7166   17.5601 H   0  0  0  0  0  0  0  0  0  0  0  0
   12.5307    0.3769   16.1792 H   0  0  0  0  0  0  0  0  0  0  0  0
   13.3253   -0.2599   14.7094 H   0  0  0  0  0  0  0  0  0  0  0  0
   11.1292   -0.7226   14.1864 H   0  0  0  0  0  0  0  0  0  0  0  0
   10.6117   -3.0126   15.3145 H   0  0  0  0  0  0  0  0  0  0  0  0
   11.8760   -2.8508   14.0732 H   0  0  0  0  0  0  0  0  0  0  0  0
  1  2  2  0
  2  3  1  0
  3  4  1  0
  4  5  2  0
  5  6  1  0
  6  7  2  0
  5  8  1  0
  8  9  1  0
  9 10  1  0
  7  2  1  0
 10  4  1  0
  3 11  1  0
  3 12  1  0
  6 13  1  0
  8 14  1  0
  8 15  1  0
  9 16  1  0
 10 17  1  0
 10 18  1  0
M  END
>  <Energy>  (357) 
16.230065499579243

>  <compound_id>  (357) 
1664

>  <target_id>  (357) 
1

>  <reference_id>  (357) 
15

>  <inspiration_ids>  (357) 
[15, 20]

>  <energy_score>  (357) 
-19.16017582901516

>  <distance_score>  (357) 
0.745097322311037

>  <path>  (357) 
/opt/xchem-fragalysis-2/maxwin/BulkDock/SCRATCH/505732/C1664-P15/C1664-P15.minimised.mol

>  <scratch_subdir>  (357) 
/opt/xchem-fragalysis-2/maxwin/BulkDock/SCRATCH/505732/C1664-P15

>  <fragmenstein_runtime>  (357) 
0.3764324188232422

>  <fragmenstein_outcome>  (357) 
acceptable

>  <fragmenstein_mode>  (357) 
expansion

>  <fragmenstein_error>  (357) 


$$$$
C1664-P20
     RDKit          3D

 18 19  0  0  0  0  0  0  0  0999 V2000
   14.2440   -4.7028   18.5541 O   0  0  0  0  0  0  0  0  0  0  0  0
   13.9872   -3.7373   17.8325 C   0  0  0  0  0  0  0  0  0  0  0  0
   12.9021   -3.9115   16.7688 C   0  0  0  0  0  0  0  0  0  0  0  0
   12.6066   -2.6689   16.0360 C   0  0  0  0  0  0  0  0  0  0  0  0
   13.2856   -1.5410   16.2037 C   0  0  0  0  0  0  0  0  0  0  0  0
   14.3629   -1.5448   17.1805 C   0  0  0  0  0  0  0  0  0  0  0  0
   14.6879   -2.5466   17.9302 N   0  0  0  0  0  0  0  0  0  0  0  0
   12.7360   -0.4621   15.3623 C   0  0  0  0  0  0  0  0  0  0  0  0
   11.4114   -0.9954   14.9847 N   0  0  0  0  0  0  0  0  0  0  0  0
   11.5276   -2.4684   15.0415 C   0  0  0  0  0  0  0  0  0  0  0  0
   12.0026   -4.2852   17.2568 H   0  0  0  0  0  0  0  0  0  0  0  0
   13.2569   -4.6760   16.0840 H   0  0  0  0  0  0  0  0  0  0  0  0
   14.9300   -0.6042   17.2745 H   0  0  0  0  0  0  0  0  0  0  0  0
   12.6197    0.4775   15.9084 H   0  0  0  0  0  0  0  0  0  0  0  0
   13.3603   -0.2968   14.4779 H   0  0  0  0  0  0  0  0  0  0  0  0
   11.1439   -0.7276   14.0345 H   0  0  0  0  0  0  0  0  0  0  0  0
   10.5785   -2.9028   15.3524 H   0  0  0  0  0  0  0  0  0  0  0  0
   11.8126   -2.8818   14.0680 H   0  0  0  0  0  0  0  0  0  0  0  0
  1  2  2  0
  2  3  1  0
  3  4  1  0
  4  5  2  0
  5  6  1  0
  6  7  2  0
  5  8  1  0
  8  9  1  0
  9 10  1  0
  7  2  1  0
 10  4  1  0
  3 11  1  0
  3 12  1  0
  6 13  1  0
  8 14  1  0
  8 15  1  0
  9 16  1  0
 10 17  1  0
 10 18  1  0
M  END
>  <Energy>  (358) 
16.237680559105165

>  <compound_id>  (358) 
1664

>  <target_id>  (358) 
1

>  <reference_id>  (358) 
20

>  <inspiration_ids>  (358) 
[15, 20]

>  <energy_score>  (358) 
-19.15256076949072

>  <distance_score>  (358) 
0.7617539093127657

>  <path>  (358) 
/opt/xchem-fragalysis-2/maxwin/BulkDock/SCRATCH/505732/C1664-P20/C1664-P20.minimised.mol

>  <scratch_subdir>  (358) 
/opt/xchem-fragalysis-2/maxwin/BulkDock/SCRATCH/505732/C1664-P20

>  <fragmenstein_runtime>  (358) 
0.5426642894744873

>  <fragmenstein_outcome>  (358) 
acceptable

>  <fragmenstein_mode>  (358) 
expansion

>  <fragmenstein_error>  (358) 


$$$$
C1674-P15
     RDKit          3D

 39 41  0  0  0  0  0  0  0  0999 V2000
   14.1395   -5.1966   17.9655 O   0  0  0  0  0  0  0  0  0  0  0  0
   13.7915   -4.1205   17.4799 C   0  0  0  0  0  0  0  0  0  0  0  0
   14.1752   -2.8503   18.1699 C   0  0  0  0  0  0  0  0  0  0  0  0
   13.9097   -1.5963   17.3927 C   0  0  0  0  0  0  0  0  0  0  0  0
   14.2241   -0.3714   17.9670 C   0  0  0  0  0  0  0  0  0  0  0  0
   14.0403    0.8112   17.2708 C   0  0  0  0  0  0  0  0  0  0  0  0
   13.5993    0.7808   15.9631 C   0  0  0  0  0  0  0  0  0  0  0  0
   13.2525   -0.4344   15.3510 C   0  0  0  0  0  0  0  0  0  0  0  0
   12.8579   -0.4022   13.8944 C   0  0  0  0  0  0  0  0  0  0  0  0
   12.7767   -1.4087   13.2977 O   0  0  0  0  0  0  0  0  0  0  0  0
   12.7224    1.0280   13.4229 N   0  0  0  0  0  0  0  0  0  0  0  0
   11.2773    1.5068   13.5206 C   0  0  0  0  0  0  0  0  0  0  0  0
   11.1024    3.0217   13.7396 C   0  0  0  0  0  0  0  0  0  0  0  0
   11.4825    3.7795   12.4742 C   0  0  0  0  0  0  0  0  0  0  0  0
   11.6463    5.2823   12.6989 C   0  0  0  0  0  0  0  0  0  0  0  0
   12.6124    5.5636   13.6986 O   0  0  0  0  0  0  0  0  0  0  0  0
   12.7330    3.1073   11.9325 C   0  0  0  0  0  0  0  0  0  0  0  0
   12.5461    1.5898   12.0399 C   0  0  0  0  0  0  0  0  0  0  0  0
   13.3691   -1.6186   16.1099 C   0  0  0  0  0  0  0  0  0  0  0  0
   12.8646   -2.9287   15.7057 C   0  0  0  0  0  0  0  0  0  0  0  0
   13.0330   -4.0441   16.3468 N   0  0  0  0  0  0  0  0  0  0  0  0
   13.6442   -2.8266   19.1264 H   0  0  0  0  0  0  0  0  0  0  0  0
   15.2518   -2.9071   18.3732 H   0  0  0  0  0  0  0  0  0  0  0  0
   14.6288   -0.3275   18.9787 H   0  0  0  0  0  0  0  0  0  0  0  0
   14.2965    1.7610   17.7374 H   0  0  0  0  0  0  0  0  0  0  0  0
   13.5535    1.7311   15.4386 H   0  0  0  0  0  0  0  0  0  0  0  0
   10.5507    1.0358   12.8382 H   0  0  0  0  0  0  0  0  0  0  0  0
   10.9380    1.0743   14.4765 H   0  0  0  0  0  0  0  0  0  0  0  0
   10.0655    3.2463   14.0127 H   0  0  0  0  0  0  0  0  0  0  0  0
   11.7291    3.3304   14.5852 H   0  0  0  0  0  0  0  0  0  0  0  0
   10.6825    3.6414   11.7356 H   0  0  0  0  0  0  0  0  0  0  0  0
   10.6957    5.7139   13.0294 H   0  0  0  0  0  0  0  0  0  0  0  0
   11.9377    5.7910   11.7737 H   0  0  0  0  0  0  0  0  0  0  0  0
   13.4953    5.4743   13.3005 H   0  0  0  0  0  0  0  0  0  0  0  0
   13.6267    3.4037   12.4939 H   0  0  0  0  0  0  0  0  0  0  0  0
   12.8919    3.3961   10.8872 H   0  0  0  0  0  0  0  0  0  0  0  0
   13.4313    1.1710   11.5349 H   0  0  0  0  0  0  0  0  0  0  0  0
   11.7468    1.1759   11.4073 H   0  0  0  0  0  0  0  0  0  0  0  0
   12.2320   -2.9892   14.8075 H   0  0  0  0  0  0  0  0  0  0  0  0
  1  2  2  0
  2  3  1  0
  3  4  1  0
  4  5  2  0
  5  6  1  0
  6  7  2  0
  7  8  1  0
  8  9  1  0
  9 10  2  0
  9 11  1  0
 11 12  1  0
 12 13  1  0
 13 14  1  0
 14 15  1  0
 15 16  1  0
 14 17  1  0
 17 18  1  0
  8 19  2  0
 19 20  1  0
 20 21  2  0
 21  2  1  0
 19  4  1  0
 18 11  1  0
  3 22  1  0
  3 23  1  0
  5 24  1  0
  6 25  1  0
  7 26  1  0
 12 27  1  0
 12 28  1  0
 13 29  1  0
 13 30  1  0
 14 31  1  0
 15 32  1  0
 15 33  1  0
 16 34  1  0
 17 35  1  0
 17 36  1  0
 18 37  1  0
 18 38  1  0
 20 39  1  0
M  END
>  <Energy>  (359) 
132.23919525256503

>  <compound_id>  (359) 
1674

>  <target_id>  (359) 
1

>  <reference_id>  (359) 
15

>  <inspiration_ids>  (359) 
[15, 63]

>  <energy_score>  (359) 
60.577727511005065

>  <distance_score>  (359) 
2.502387017147227

>  <path>  (359) 
/opt/xchem-fragalysis-2/maxwin/BulkDock/SCRATCH/505732/C1674-P15/C1674-P15.minimised.mol

>  <scratch_subdir>  (359) 
/opt/xchem-fragalysis-2/maxwin/BulkDock/SCRATCH/505732/C1674-P15

>  <fragmenstein_runtime>  (359) 
2.3605539798736572

>  <fragmenstein_outcome>  (359) 
too moved

>  <fragmenstein_mode>  (359) 
expansion

>  <fragmenstein_error>  (359) 


$$$$
C1674-P63
     RDKit          3D

 39 41  0  0  0  0  0  0  0  0999 V2000
   14.4135   -5.0681   18.2352 O   0  0  0  0  0  0  0  0  0  0  0  0
   14.1616   -3.9325   17.8306 C   0  0  0  0  0  0  0  0  0  0  0  0
   13.0361   -3.7503   16.8417 C   0  0  0  0  0  0  0  0  0  0  0  0
   12.8600   -2.3668   16.2947 C   0  0  0  0  0  0  0  0  0  0  0  0
   11.8932   -2.1150   15.3096 C   0  0  0  0  0  0  0  0  0  0  0  0
   11.7199   -0.8246   14.8142 C   0  0  0  0  0  0  0  0  0  0  0  0
   12.5062    0.2211   15.2934 C   0  0  0  0  0  0  0  0  0  0  0  0
   13.4783   -0.0189   16.2747 C   0  0  0  0  0  0  0  0  0  0  0  0
   14.2595    1.1386   16.7924 C   0  0  0  0  0  0  0  0  0  0  0  0
   14.3919    1.2626   17.9514 O   0  0  0  0  0  0  0  0  0  0  0  0
   14.7216    2.0163   15.6593 N   0  0  0  0  0  0  0  0  0  0  0  0
   16.1123    1.6108   15.1783 C   0  0  0  0  0  0  0  0  0  0  0  0
   16.4070    1.8958   13.6973 C   0  0  0  0  0  0  0  0  0  0  0  0
   16.5915    3.3891   13.4962 C   0  0  0  0  0  0  0  0  0  0  0  0
   16.5612    3.7787   12.0210 C   0  0  0  0  0  0  0  0  0  0  0  0
   16.8428    5.1623   11.8660 O   0  0  0  0  0  0  0  0  0  0  0  0
   15.5117    4.0725   14.3191 C   0  0  0  0  0  0  0  0  0  0  0  0
   15.4004    3.3635   15.6739 C   0  0  0  0  0  0  0  0  0  0  0  0
   13.6519   -1.3181   16.7718 C   0  0  0  0  0  0  0  0  0  0  0  0
   14.6717   -1.6636   17.7722 C   0  0  0  0  0  0  0  0  0  0  0  0
   14.8962   -2.8493   18.2423 N   0  0  0  0  0  0  0  0  0  0  0  0
   13.2429   -4.4321   16.0187 H   0  0  0  0  0  0  0  0  0  0  0  0
   12.1121   -4.0711   17.3234 H   0  0  0  0  0  0  0  0  0  0  0  0
   11.2723   -2.9215   14.9187 H   0  0  0  0  0  0  0  0  0  0  0  0
   10.9686   -0.6304   14.0526 H   0  0  0  0  0  0  0  0  0  0  0  0
   12.3470    1.2264   14.9097 H   0  0  0  0  0  0  0  0  0  0  0  0
   16.9504    1.7929   15.8745 H   0  0  0  0  0  0  0  0  0  0  0  0
   16.0712    0.5096   15.2165 H   0  0  0  0  0  0  0  0  0  0  0  0
   17.3096    1.3586   13.3838 H   0  0  0  0  0  0  0  0  0  0  0  0
   15.5767    1.5217   13.0849 H   0  0  0  0  0  0  0  0  0  0  0  0
   17.5633    3.6854   13.9147 H   0  0  0  0  0  0  0  0  0  0  0  0
   15.5910    3.5635   11.5599 H   0  0  0  0  0  0  0  0  0  0  0  0
   17.3250    3.2230   11.4675 H   0  0  0  0  0  0  0  0  0  0  0  0
   16.0691    5.6628   12.1756 H   0  0  0  0  0  0  0  0  0  0  0  0
   14.5444    4.0316   13.8027 H   0  0  0  0  0  0  0  0  0  0  0  0
   15.7579    5.1295   14.4706 H   0  0  0  0  0  0  0  0  0  0  0  0
   14.6509    3.9580   16.2218 H   0  0  0  0  0  0  0  0  0  0  0  0
   16.2621    3.4865   16.3533 H   0  0  0  0  0  0  0  0  0  0  0  0
   15.3258   -0.8666   18.1566 H   0  0  0  0  0  0  0  0  0  0  0  0
  1  2  2  0
  2  3  1  0
  3  4  1  0
  4  5  2  0
  5  6  1  0
  6  7  2  0
  7  8  1  0
  8  9  1  0
  9 10  2  0
  9 11  1  0
 11 12  1  0
 12 13  1  0
 13 14  1  0
 14 15  1  0
 15 16  1  0
 14 17  1  0
 17 18  1  0
  8 19  2  0
 19 20  1  0
 20 21  2  0
 21  2  1  0
 19  4  1  0
 18 11  1  0
  3 22  1  0
  3 23  1  0
  5 24  1  0
  6 25  1  0
  7 26  1  0
 12 27  1  0
 12 28  1  0
 13 29  1  0
 13 30  1  0
 14 31  1  0
 15 32  1  0
 15 33  1  0
 16 34  1  0
 17 35  1  0
 17 36  1  0
 18 37  1  0
 18 38  1  0
 20 39  1  0
M  END
>  <Energy>  (360) 
127.59821496240592

>  <compound_id>  (360) 
1674

>  <target_id>  (360) 
1

>  <reference_id>  (360) 
63

>  <inspiration_ids>  (360) 
[15, 63]

>  <energy_score>  (360) 
55.93674722084387

>  <distance_score>  (360) 
0.6080802112235707

>  <path>  (360) 
/opt/xchem-fragalysis-2/maxwin/BulkDock/SCRATCH/505732/C1674-P63/C1674-P63.minimised.mol

>  <scratch_subdir>  (360) 
/opt/xchem-fragalysis-2/maxwin/BulkDock/SCRATCH/505732/C1674-P63

>  <fragmenstein_runtime>  (360) 
2.4804930686950684

>  <fragmenstein_outcome>  (360) 
too contorted

>  <fragmenstein_mode>  (360) 
expansion

>  <fragmenstein_error>  (360) 


$$$$
C1675-P15
     RDKit          3D

 22 23  0  0  0  0  0  0  0  0999 V2000
   14.2139   -5.0743   17.8589 O   0  0  0  0  0  0  0  0  0  0  0  0
   14.1753   -3.8769   17.5874 C   0  0  0  0  0  0  0  0  0  0  0  0
   12.9258   -3.2452   17.0152 C   0  0  0  0  0  0  0  0  0  0  0  0
   13.1965   -2.1044   16.0130 C   0  0  0  0  0  0  0  0  0  0  0  0
   14.6830   -1.9976   15.6924 C   0  0  0  0  0  0  0  0  0  0  0  0
   15.4635   -2.1254   16.9666 C   0  0  0  0  0  0  0  0  0  0  0  0
   15.2194   -3.0265   17.8579 N   0  0  0  0  0  0  0  0  0  0  0  0
   12.3408   -2.2873   14.7420 C   0  0  0  0  0  0  0  0  0  0  0  0
   11.1635   -1.4846   15.0477 N   0  0  0  0  0  0  0  0  0  0  0  0
   11.7352   -0.2856   15.5939 C   0  0  0  0  0  0  0  0  0  0  0  0
   12.6963   -0.7997   16.5539 N   0  0  0  0  0  0  0  0  0  0  0  0
   12.3792   -2.8784   17.8769 H   0  0  0  0  0  0  0  0  0  0  0  0
   12.3243   -4.0461   16.5703 H   0  0  0  0  0  0  0  0  0  0  0  0
   14.9362   -1.0449   15.2134 H   0  0  0  0  0  0  0  0  0  0  0  0
   15.0160   -2.7939   15.0184 H   0  0  0  0  0  0  0  0  0  0  0  0
   16.3139   -1.4394   17.1130 H   0  0  0  0  0  0  0  0  0  0  0  0
   12.8428   -1.8969   13.8473 H   0  0  0  0  0  0  0  0  0  0  0  0
   12.0455   -3.3194   14.5483 H   0  0  0  0  0  0  0  0  0  0  0  0
   10.6147   -1.3088   14.1978 H   0  0  0  0  0  0  0  0  0  0  0  0
   12.2296    0.3169   14.8218 H   0  0  0  0  0  0  0  0  0  0  0  0
   10.9770    0.3336   16.0789 H   0  0  0  0  0  0  0  0  0  0  0  0
   13.4389   -0.1172   16.6818 H   0  0  0  0  0  0  0  0  0  0  0  0
  1  2  2  0
  2  3  1  0
  3  4  1  0
  4  5  1  0
  5  6  1  0
  6  7  2  0
  4  8  1  0
  8  9  1  0
  9 10  1  0
 10 11  1  0
  7  2  1  0
 11  4  1  0
  3 12  1  0
  3 13  1  0
  5 14  1  0
  5 15  1  0
  6 16  1  0
  8 17  1  0
  8 18  1  0
  9 19  1  0
 10 20  1  0
 10 21  1  0
 11 22  1  0
M  END
>  <Energy>  (361) 
-9.3994097016398275

>  <compound_id>  (361) 
1675

>  <target_id>  (361) 
1

>  <reference_id>  (361) 
15

>  <inspiration_ids>  (361) 
[15, 66]

>  <energy_score>  (361) 
-7.228290225698075

>  <distance_score>  (361) 
1.1428315362096306

>  <path>  (361) 
/opt/xchem-fragalysis-2/maxwin/BulkDock/SCRATCH/505732/C1675-P15/C1675-P15.minimised.mol

>  <scratch_subdir>  (361) 
/opt/xchem-fragalysis-2/maxwin/BulkDock/SCRATCH/505732/C1675-P15

>  <fragmenstein_runtime>  (361) 
0.6360974311828613

>  <fragmenstein_outcome>  (361) 
too moved

>  <fragmenstein_mode>  (361) 
expansion

>  <fragmenstein_error>  (361) 


$$$$
C1675-P66
     RDKit          3D

 22 23  0  0  0  0  0  0  0  0999 V2000
   13.7529   -4.7543   17.5097 O   0  0  0  0  0  0  0  0  0  0  0  0
   14.0377   -3.6942   16.9564 C   0  0  0  0  0  0  0  0  0  0  0  0
   12.9876   -2.9494   16.1400 C   0  0  0  0  0  0  0  0  0  0  0  0
   13.4724   -1.6632   15.4618 C   0  0  0  0  0  0  0  0  0  0  0  0
   14.4351   -0.9404   16.4125 C   0  0  0  0  0  0  0  0  0  0  0  0
   15.4824   -1.8949   16.8739 C   0  0  0  0  0  0  0  0  0  0  0  0
   15.2852   -3.1459   17.1073 N   0  0  0  0  0  0  0  0  0  0  0  0
   14.0464   -1.8288   14.0587 C   0  0  0  0  0  0  0  0  0  0  0  0
   13.9821   -0.4840   13.4773 N   0  0  0  0  0  0  0  0  0  0  0  0
   12.8487    0.1628   14.1025 C   0  0  0  0  0  0  0  0  0  0  0  0
   12.3359   -0.7873   15.0713 N   0  0  0  0  0  0  0  0  0  0  0  0
   12.1990   -2.7026   16.8537 H   0  0  0  0  0  0  0  0  0  0  0  0
   12.5358   -3.6321   15.4194 H   0  0  0  0  0  0  0  0  0  0  0  0
   13.9507   -0.5613   17.3127 H   0  0  0  0  0  0  0  0  0  0  0  0
   14.9447   -0.0895   15.9486 H   0  0  0  0  0  0  0  0  0  0  0  0
   16.4850   -1.4783   17.0690 H   0  0  0  0  0  0  0  0  0  0  0  0
   15.0684   -2.2188   14.0399 H   0  0  0  0  0  0  0  0  0  0  0  0
   13.4088   -2.4524   13.4247 H   0  0  0  0  0  0  0  0  0  0  0  0
   14.8268    0.0366   13.7006 H   0  0  0  0  0  0  0  0  0  0  0  0
   13.1537    1.0894   14.6009 H   0  0  0  0  0  0  0  0  0  0  0  0
   12.0833    0.4204   13.3635 H   0  0  0  0  0  0  0  0  0  0  0  0
   11.6333   -1.3460   14.5742 H   0  0  0  0  0  0  0  0  0  0  0  0
  1  2  2  0
  2  3  1  0
  3  4  1  0
  4  5  1  0
  5  6  1  0
  6  7  2  0
  4  8  1  0
  8  9  1  0
  9 10  1  0
 10 11  1  0
  7  2  1  0
 11  4  1  0
  3 12  1  0
  3 13  1  0
  5 14  1  0
  5 15  1  0
  6 16  1  0
  8 17  1  0
  8 18  1  0
  9 19  1  0
 10 20  1  0
 10 21  1  0
 11 22  1  0
M  END
>  <Energy>  (362) 
-18.101137495343821

>  <compound_id>  (362) 
1675

>  <target_id>  (362) 
1

>  <reference_id>  (362) 
66

>  <inspiration_ids>  (362) 
[15, 66]

>  <energy_score>  (362) 
-15.9300180194016

>  <distance_score>  (362) 
1.660587590568282

>  <path>  (362) 
/opt/xchem-fragalysis-2/maxwin/BulkDock/SCRATCH/505732/C1675-P66/C1675-P66.minimised.mol

>  <scratch_subdir>  (362) 
/opt/xchem-fragalysis-2/maxwin/BulkDock/SCRATCH/505732/C1675-P66

>  <fragmenstein_runtime>  (362) 
0.9016284942626953

>  <fragmenstein_outcome>  (362) 
too moved

>  <fragmenstein_mode>  (362) 
expansion

>  <fragmenstein_error>  (362) 


$$$$
C1676-P15
     RDKit          3D

 37 38  0  0  0  0  0  0  0  0999 V2000
   10.9318   -3.1261   14.6011 C   0  0  0  0  0  0  0  0  0  0  0  0
   11.9247   -2.3268   15.3112 C   0  0  0  0  0  0  0  0  0  0  0  0
   12.0721   -0.9858   15.0697 N   0  0  0  0  0  0  0  0  0  0  0  0
   13.0271   -0.4892   15.9172 C   0  0  0  0  0  0  0  0  0  0  0  0
   13.5019   -1.5393   16.6734 C   0  0  0  0  0  0  0  0  0  0  0  0
   12.8302   -2.6952   16.2711 C   0  0  0  0  0  0  0  0  0  0  0  0
   13.1173   -3.9939   16.9000 C   0  0  0  0  0  0  0  0  0  0  0  0
   14.3167   -3.9244   17.8397 C   0  0  0  0  0  0  0  0  0  0  0  0
   14.7526   -4.9949   18.2728 O   0  0  0  0  0  0  0  0  0  0  0  0
   14.8679   -2.7125   18.2383 N   0  0  0  0  0  0  0  0  0  0  0  0
   14.4745   -1.5792   17.7339 C   0  0  0  0  0  0  0  0  0  0  0  0
   15.0185   -0.2817   18.3164 C   0  0  0  0  0  0  0  0  0  0  0  0
   14.2838    0.5986   18.5095 O   0  0  0  0  0  0  0  0  0  0  0  0
   16.5335   -0.3715   18.5140 N   0  0  0  0  0  0  0  0  0  0  0  0
   17.5030    0.6503   18.9095 C   0  0  0  0  0  0  0  0  0  0  0  0
   18.3275    1.0387   17.6731 C   0  0  0  0  0  0  0  0  0  0  0  0
   16.7885    1.9203   19.4431 C   0  0  0  0  0  0  0  0  0  0  0  0
   15.9586    1.6276   20.5635 O   0  0  0  0  0  0  0  0  0  0  0  0
   18.4095    0.0572   20.0115 C   0  0  0  0  0  0  0  0  0  0  0  0
   19.1380   -1.0678   19.5083 O   0  0  0  0  0  0  0  0  0  0  0  0
   10.8491   -4.1103   15.0527 H   0  0  0  0  0  0  0  0  0  0  0  0
    9.9501   -2.6547   14.6807 H   0  0  0  0  0  0  0  0  0  0  0  0
   11.2305   -3.2536   13.5583 H   0  0  0  0  0  0  0  0  0  0  0  0
   11.5409   -0.4551   14.3871 H   0  0  0  0  0  0  0  0  0  0  0  0
   13.2730    0.5657   15.9140 H   0  0  0  0  0  0  0  0  0  0  0  0
   12.2550   -4.3322   17.4760 H   0  0  0  0  0  0  0  0  0  0  0  0
   13.3443   -4.7418   16.1389 H   0  0  0  0  0  0  0  0  0  0  0  0
   16.8689   -1.2682   18.1653 H   0  0  0  0  0  0  0  0  0  0  0  0
   18.8233    0.1688   17.2277 H   0  0  0  0  0  0  0  0  0  0  0  0
   17.6882    1.4729   16.8954 H   0  0  0  0  0  0  0  0  0  0  0  0
   19.0985    1.7746   17.9261 H   0  0  0  0  0  0  0  0  0  0  0  0
   16.1780    2.4024   18.6708 H   0  0  0  0  0  0  0  0  0  0  0  0
   17.5294    2.6578   19.7721 H   0  0  0  0  0  0  0  0  0  0  0  0
   15.1014    1.3341   20.1926 H   0  0  0  0  0  0  0  0  0  0  0  0
   17.8145   -0.2866   20.8652 H   0  0  0  0  0  0  0  0  0  0  0  0
   19.1357    0.7968   20.3651 H   0  0  0  0  0  0  0  0  0  0  0  0
   19.5547   -1.4940   20.2780 H   0  0  0  0  0  0  0  0  0  0  0  0
  1  2  1  0
  2  3  1  0
  3  4  1  0
  4  5  2  0
  5  6  1  0
  6  7  1  0
  7  8  1  0
  8  9  2  0
  8 10  1  0
 10 11  2  0
 11 12  1  0
 12 13  2  0
 12 14  1  0
 14 15  1  0
 15 16  1  0
 15 17  1  0
 17 18  1  0
 15 19  1  0
 19 20  1  0
  6  2  2  0
 11  5  1  0
  1 21  1  0
  1 22  1  0
  1 23  1  0
  3 24  1  0
  4 25  1  0
  7 26  1  0
  7 27  1  0
 14 28  1  0
 16 29  1  0
 16 30  1  0
 16 31  1  0
 17 32  1  0
 17 33  1  0
 18 34  1  0
 19 35  1  0
 19 36  1  0
 20 37  1  0
M  END
>  <Energy>  (363) 
127.58254757386634

>  <compound_id>  (363) 
1676

>  <target_id>  (363) 
1

>  <reference_id>  (363) 
15

>  <inspiration_ids>  (363) 
[15, 71]

>  <energy_score>  (363) 
-22.358975065001744

>  <distance_score>  (363) 
0.9717687826405196

>  <path>  (363) 
/opt/xchem-fragalysis-2/maxwin/BulkDock/SCRATCH/505732/C1676-P15/C1676-P15.minimised.mol

>  <scratch_subdir>  (363) 
/opt/xchem-fragalysis-2/maxwin/BulkDock/SCRATCH/505732/C1676-P15

>  <fragmenstein_runtime>  (363) 
1.9914207458496094

>  <fragmenstein_outcome>  (363) 
acceptable

>  <fragmenstein_mode>  (363) 
expansion

>  <fragmenstein_error>  (363) 


$$$$
C1676-P71
     RDKit          3D

 37 38  0  0  0  0  0  0  0  0999 V2000
   10.9716   -3.1540   14.6052 C   0  0  0  0  0  0  0  0  0  0  0  0
   11.9490   -2.3257   15.3043 C   0  0  0  0  0  0  0  0  0  0  0  0
   12.0621   -0.9809   15.0677 N   0  0  0  0  0  0  0  0  0  0  0  0
   13.0158   -0.4658   15.9080 C   0  0  0  0  0  0  0  0  0  0  0  0
   13.5196   -1.5072   16.6576 C   0  0  0  0  0  0  0  0  0  0  0  0
   12.8666   -2.6743   16.2584 C   0  0  0  0  0  0  0  0  0  0  0  0
   13.1748   -3.9687   16.8817 C   0  0  0  0  0  0  0  0  0  0  0  0
   14.3644   -3.8808   17.8289 C   0  0  0  0  0  0  0  0  0  0  0  0
   14.8059   -4.9438   18.2743 O   0  0  0  0  0  0  0  0  0  0  0  0
   14.9085   -2.6633   18.2162 N   0  0  0  0  0  0  0  0  0  0  0  0
   14.5005   -1.5354   17.7103 C   0  0  0  0  0  0  0  0  0  0  0  0
   15.0424   -0.2381   18.2936 C   0  0  0  0  0  0  0  0  0  0  0  0
   14.3083    0.6396   18.5009 O   0  0  0  0  0  0  0  0  0  0  0  0
   16.5506   -0.3483   18.5324 N   0  0  0  0  0  0  0  0  0  0  0  0
   17.5146    0.6482   18.9981 C   0  0  0  0  0  0  0  0  0  0  0  0
   18.4707    0.9697   17.8403 C   0  0  0  0  0  0  0  0  0  0  0  0
   16.8028    1.9566   19.4328 C   0  0  0  0  0  0  0  0  0  0  0  0
   15.8925    1.7313   20.5061 O   0  0  0  0  0  0  0  0  0  0  0  0
   18.2851    0.0522   20.1987 C   0  0  0  0  0  0  0  0  0  0  0  0
   19.0101   -1.1154   19.7982 O   0  0  0  0  0  0  0  0  0  0  0  0
   10.9241   -4.1392   15.0592 H   0  0  0  0  0  0  0  0  0  0  0  0
    9.9775   -2.7118   14.6946 H   0  0  0  0  0  0  0  0  0  0  0  0
   11.2639   -3.2782   13.5605 H   0  0  0  0  0  0  0  0  0  0  0  0
   11.5085   -0.4608   14.3947 H   0  0  0  0  0  0  0  0  0  0  0  0
   13.2373    0.5943   15.9058 H   0  0  0  0  0  0  0  0  0  0  0  0
   12.3159   -4.3275   17.4491 H   0  0  0  0  0  0  0  0  0  0  0  0
   13.4211   -4.7057   16.1165 H   0  0  0  0  0  0  0  0  0  0  0  0
   16.8617   -1.2942   18.3112 H   0  0  0  0  0  0  0  0  0  0  0  0
   18.9704    0.0691   17.4660 H   0  0  0  0  0  0  0  0  0  0  0  0
   17.9285    1.4079   16.9942 H   0  0  0  0  0  0  0  0  0  0  0  0
   19.2438    1.6811   18.1505 H   0  0  0  0  0  0  0  0  0  0  0  0
   16.2598    2.4230   18.6026 H   0  0  0  0  0  0  0  0  0  0  0  0
   17.5411    2.6862   19.7843 H   0  0  0  0  0  0  0  0  0  0  0  0
   15.0573    1.4331   20.0895 H   0  0  0  0  0  0  0  0  0  0  0  0
   17.5970   -0.2434   20.9988 H   0  0  0  0  0  0  0  0  0  0  0  0
   19.0043    0.7728   20.6025 H   0  0  0  0  0  0  0  0  0  0  0  0
   19.3363   -1.5328   20.6148 H   0  0  0  0  0  0  0  0  0  0  0  0
  1  2  1  0
  2  3  1  0
  3  4  1  0
  4  5  2  0
  5  6  1  0
  6  7  1  0
  7  8  1  0
  8  9  2  0
  8 10  1  0
 10 11  2  0
 11 12  1  0
 12 13  2  0
 12 14  1  0
 14 15  1  0
 15 16  1  0
 15 17  1  0
 17 18  1  0
 15 19  1  0
 19 20  1  0
  6  2  2  0
 11  5  1  0
  1 21  1  0
  1 22  1  0
  1 23  1  0
  3 24  1  0
  4 25  1  0
  7 26  1  0
  7 27  1  0
 14 28  1  0
 16 29  1  0
 16 30  1  0
 16 31  1  0
 17 32  1  0
 17 33  1  0
 18 34  1  0
 19 35  1  0
 19 36  1  0
 20 37  1  0
M  END
>  <Energy>  (364) 
126.87978719514018

>  <compound_id>  (364) 
1676

>  <target_id>  (364) 
1

>  <reference_id>  (364) 
71

>  <inspiration_ids>  (364) 
[15, 71]

>  <energy_score>  (364) 
-23.06173544372723

>  <distance_score>  (364) 
0.997603786515915

>  <path>  (364) 
/opt/xchem-fragalysis-2/maxwin/BulkDock/SCRATCH/505732/C1676-P71/C1676-P71.minimised.mol

>  <scratch_subdir>  (364) 
/opt/xchem-fragalysis-2/maxwin/BulkDock/SCRATCH/505732/C1676-P71

>  <fragmenstein_runtime>  (364) 
1.8449532985687256

>  <fragmenstein_outcome>  (364) 
acceptable

>  <fragmenstein_mode>  (364) 
expansion

>  <fragmenstein_error>  (364) 


$$$$
C1680-P15
     RDKit          3D

 40 42  0  0  0  0  0  0  0  0999 V2000
   13.2687   -5.1926   16.9831 O   0  0  0  0  0  0  0  0  0  0  0  0
   13.5711   -4.0103   17.0303 C   0  0  0  0  0  0  0  0  0  0  0  0
   12.7636   -2.9692   16.3051 C   0  0  0  0  0  0  0  0  0  0  0  0
   13.5499   -1.6987   15.9557 C   0  0  0  0  0  0  0  0  0  0  0  0
   12.5295   -0.6239   15.5040 C   0  0  0  0  0  0  0  0  0  0  0  0
   13.2219    0.6279   14.9643 C   0  0  0  0  0  0  0  0  0  0  0  0
   14.2429    0.2802   13.8834 C   0  0  0  0  0  0  0  0  0  0  0  0
   15.1960   -0.7306   14.3464 N   0  0  0  0  0  0  0  0  0  0  0  0
   14.5063   -1.9528   14.7670 C   0  0  0  0  0  0  0  0  0  0  0  0
   14.3481   -1.2340   17.1967 C   0  0  0  0  0  0  0  0  0  0  0  0
   14.9822   -2.4036   17.8875 C   0  0  0  0  0  0  0  0  0  0  0  0
   16.0256   -2.3057   18.7272 N   0  0  0  0  0  0  0  0  0  0  0  0
   16.8746   -1.0622   19.1526 C   0  0  0  0  0  0  0  0  0  0  0  0
   16.7404    0.0731   18.8931 O   0  0  0  0  0  0  0  0  0  0  0  0
   17.9915   -1.5531   20.1078 C   0  0  0  0  0  0  0  0  0  0  0  0
   18.3315   -3.0133   20.0108 C   0  0  0  0  0  0  0  0  0  0  0  0
   19.0021   -3.7459   19.0523 C   0  0  0  0  0  0  0  0  0  0  0  0
   18.9485   -5.0737   19.5114 C   0  0  0  0  0  0  0  0  0  0  0  0
   18.3038   -5.1791   20.6742 N   0  0  0  0  0  0  0  0  0  0  0  0
   17.9610   -3.9199   20.9737 N   0  0  0  0  0  0  0  0  0  0  0  0
   14.6061   -3.6244   17.8088 N   0  0  0  0  0  0  0  0  0  0  0  0
   11.9274   -2.7182   16.9587 H   0  0  0  0  0  0  0  0  0  0  0  0
   12.3402   -3.4212   15.4013 H   0  0  0  0  0  0  0  0  0  0  0  0
   11.8691   -0.3445   16.3324 H   0  0  0  0  0  0  0  0  0  0  0  0
   11.8834   -1.0339   14.7157 H   0  0  0  0  0  0  0  0  0  0  0  0
   13.7175    1.1608   15.7849 H   0  0  0  0  0  0  0  0  0  0  0  0
   12.4712    1.3129   14.5537 H   0  0  0  0  0  0  0  0  0  0  0  0
   13.7298   -0.0741   12.9807 H   0  0  0  0  0  0  0  0  0  0  0  0
   14.7928    1.1851   13.6031 H   0  0  0  0  0  0  0  0  0  0  0  0
   15.8383   -0.9545   13.5848 H   0  0  0  0  0  0  0  0  0  0  0  0
   13.9410   -2.3285   13.9086 H   0  0  0  0  0  0  0  0  0  0  0  0
   15.2576   -2.7068   15.0258 H   0  0  0  0  0  0  0  0  0  0  0  0
   15.1141   -0.4952   16.9461 H   0  0  0  0  0  0  0  0  0  0  0  0
   13.6813   -0.7575   17.9229 H   0  0  0  0  0  0  0  0  0  0  0  0
   16.3723   -3.1263   19.1952 H   0  0  0  0  0  0  0  0  0  0  0  0
   18.8931   -0.9718   19.8803 H   0  0  0  0  0  0  0  0  0  0  0  0
   17.6781   -1.3019   21.1278 H   0  0  0  0  0  0  0  0  0  0  0  0
   19.4523   -3.3793   18.1397 H   0  0  0  0  0  0  0  0  0  0  0  0
   19.3458   -5.9674   19.0463 H   0  0  0  0  0  0  0  0  0  0  0  0
   17.4707   -3.7542   21.8484 H   0  0  0  0  0  0  0  0  0  0  0  0
  1  2  2  0
  2  3  1  0
  3  4  1  0
  4  5  1  0
  5  6  1  0
  6  7  1  0
  7  8  1  0
  8  9  1  0
  4 10  1  0
 10 11  1  0
 11 12  1  0
 12 13  1  0
 13 14  2  0
 13 15  1  0
 15 16  1  0
 16 17  2  0
 17 18  1  0
 18 19  2  0
 19 20  1  0
 11 21  2  0
 21  2  1  0
  9  4  1  0
 20 16  1  0
  3 22  1  0
  3 23  1  0
  5 24  1  0
  5 25  1  0
  6 26  1  0
  6 27  1  0
  7 28  1  0
  7 29  1  0
  8 30  1  0
  9 31  1  0
  9 32  1  0
 10 33  1  0
 10 34  1  0
 12 35  1  0
 15 36  1  0
 15 37  1  0
 17 38  1  0
 18 39  1  0
 20 40  1  0
M  END
>  <Energy>  (365) 
4.1016801147203052

>  <compound_id>  (365) 
1680

>  <target_id>  (365) 
1

>  <reference_id>  (365) 
15

>  <inspiration_ids>  (365) 
[15, 86]

>  <energy_score>  (365) 
-39.87234045793335

>  <distance_score>  (365) 
2.1860151848462506

>  <path>  (365) 
/opt/xchem-fragalysis-2/maxwin/BulkDock/SCRATCH/505732/C1680-P15/C1680-P15.minimised.mol

>  <scratch_subdir>  (365) 
/opt/xchem-fragalysis-2/maxwin/BulkDock/SCRATCH/505732/C1680-P15

>  <fragmenstein_runtime>  (365) 
4.740415811538696

>  <fragmenstein_outcome>  (365) 
too moved

>  <fragmenstein_mode>  (365) 
expansion

>  <fragmenstein_error>  (365) 


$$$$
C1680-P86
     RDKit          3D

 40 42  0  0  0  0  0  0  0  0999 V2000
   13.3776   -5.1737   17.0100 O   0  0  0  0  0  0  0  0  0  0  0  0
   13.5690   -3.9780   17.1700 C   0  0  0  0  0  0  0  0  0  0  0  0
   12.7916   -2.9469   16.4012 C   0  0  0  0  0  0  0  0  0  0  0  0
   13.5957   -1.6790   16.0756 C   0  0  0  0  0  0  0  0  0  0  0  0
   12.6000   -0.5694   15.6093 C   0  0  0  0  0  0  0  0  0  0  0  0
   12.6910   -0.2958   14.1110 C   0  0  0  0  0  0  0  0  0  0  0  0
   14.1266    0.0448   13.6979 C   0  0  0  0  0  0  0  0  0  0  0  0
   15.1540   -0.7284   14.4056 N   0  0  0  0  0  0  0  0  0  0  0  0
   14.6165   -1.9731   14.9467 C   0  0  0  0  0  0  0  0  0  0  0  0
   14.3576   -1.2039   17.3369 C   0  0  0  0  0  0  0  0  0  0  0  0
   14.8654   -2.3550   18.1560 C   0  0  0  0  0  0  0  0  0  0  0  0
   15.8535   -2.2452   19.0624 N   0  0  0  0  0  0  0  0  0  0  0  0
   16.8963   -1.1012   19.2958 C   0  0  0  0  0  0  0  0  0  0  0  0
   16.9990   -0.0530   18.7840 O   0  0  0  0  0  0  0  0  0  0  0  0
   17.9020   -1.6652   20.3146 C   0  0  0  0  0  0  0  0  0  0  0  0
   18.3614   -3.0479   19.9324 C   0  0  0  0  0  0  0  0  0  0  0  0
   18.4853   -4.2102   20.6631 C   0  0  0  0  0  0  0  0  0  0  0  0
   18.9282   -5.1778   19.7453 C   0  0  0  0  0  0  0  0  0  0  0  0
   19.0806   -4.6724   18.5220 N   0  0  0  0  0  0  0  0  0  0  0  0
   18.7373   -3.3850   18.6585 N   0  0  0  0  0  0  0  0  0  0  0  0
   14.4601   -3.5671   18.1000 N   0  0  0  0  0  0  0  0  0  0  0  0
   12.4030   -3.4041   15.4844 H   0  0  0  0  0  0  0  0  0  0  0  0
   11.9306   -2.6973   17.0191 H   0  0  0  0  0  0  0  0  0  0  0  0
   12.8152    0.3719   16.1324 H   0  0  0  0  0  0  0  0  0  0  0  0
   11.5646   -0.8215   15.8675 H   0  0  0  0  0  0  0  0  0  0  0  0
   12.0227    0.5286   13.8373 H   0  0  0  0  0  0  0  0  0  0  0  0
   12.3412   -1.1781   13.5607 H   0  0  0  0  0  0  0  0  0  0  0  0
   14.2263   -0.1110   12.6171 H   0  0  0  0  0  0  0  0  0  0  0  0
   14.3203    1.1071   13.8833 H   0  0  0  0  0  0  0  0  0  0  0  0
   15.9234   -0.9279   13.7651 H   0  0  0  0  0  0  0  0  0  0  0  0
   14.1501   -2.5178   14.1273 H   0  0  0  0  0  0  0  0  0  0  0  0
   15.4403   -2.5924   15.3191 H   0  0  0  0  0  0  0  0  0  0  0  0
   15.1827   -0.5348   17.0768 H   0  0  0  0  0  0  0  0  0  0  0  0
   13.6955   -0.6283   17.9919 H   0  0  0  0  0  0  0  0  0  0  0  0
   16.1058   -3.0528   19.6191 H   0  0  0  0  0  0  0  0  0  0  0  0
   17.4245   -1.6706   21.3004 H   0  0  0  0  0  0  0  0  0  0  0  0
   18.7672   -0.9945   20.3575 H   0  0  0  0  0  0  0  0  0  0  0  0
   18.2798   -4.3485   21.7158 H   0  0  0  0  0  0  0  0  0  0  0  0
   19.1436   -6.2255   19.9145 H   0  0  0  0  0  0  0  0  0  0  0  0
   18.7882   -2.7916   17.8348 H   0  0  0  0  0  0  0  0  0  0  0  0
  1  2  2  0
  2  3  1  0
  3  4  1  0
  4  5  1  0
  5  6  1  0
  6  7  1  0
  7  8  1  0
  8  9  1  0
  4 10  1  0
 10 11  1  0
 11 12  1  0
 12 13  1  0
 13 14  2  0
 13 15  1  0
 15 16  1  0
 16 17  2  0
 17 18  1  0
 18 19  2  0
 19 20  1  0
 11 21  2  0
 21  2  1  0
  9  4  1  0
 20 16  1  0
  3 22  1  0
  3 23  1  0
  5 24  1  0
  5 25  1  0
  6 26  1  0
  6 27  1  0
  7 28  1  0
  7 29  1  0
  8 30  1  0
  9 31  1  0
  9 32  1  0
 10 33  1  0
 10 34  1  0
 12 35  1  0
 15 36  1  0
 15 37  1  0
 17 38  1  0
 18 39  1  0
 20 40  1  0
M  END
>  <Energy>  (366) 
11.118533677366463

>  <compound_id>  (366) 
1680

>  <target_id>  (366) 
1

>  <reference_id>  (366) 
86

>  <inspiration_ids>  (366) 
[15, 86]

>  <energy_score>  (366) 
-32.855486895285225

>  <distance_score>  (366) 
2.340604610894773

>  <path>  (366) 
/opt/xchem-fragalysis-2/maxwin/BulkDock/SCRATCH/505732/C1680-P86/C1680-P86.minimised.mol

>  <scratch_subdir>  (366) 
/opt/xchem-fragalysis-2/maxwin/BulkDock/SCRATCH/505732/C1680-P86

>  <fragmenstein_runtime>  (366) 
3.1659934520721436

>  <fragmenstein_outcome>  (366) 
too moved

>  <fragmenstein_mode>  (366) 
expansion

>  <fragmenstein_error>  (366) 


$$$$
C1681-P15
     RDKit          3D

 39 43  0  0  0  0  0  0  0  0999 V2000
   16.3839    1.1392   19.1942 C   0  0  0  0  0  0  0  0  0  0  0  0
   16.5755    0.3901   17.9279 C   0  0  0  0  0  0  0  0  0  0  0  0
   17.6094   -0.5005   17.5390 C   0  0  0  0  0  0  0  0  0  0  0  0
   18.6661   -1.3290   18.6730 S   0  0  0  0  0  0  0  0  0  0  0  0
   17.9188   -2.9039   18.4954 C   0  0  0  0  0  0  0  0  0  0  0  0
   18.6602   -3.9443   18.0602 C   0  0  0  0  0  0  0  0  0  0  0  0
   18.0296   -5.2371   17.8488 C   0  0  0  0  0  0  0  0  0  0  0  0
   16.7017   -5.4060   17.9939 C   0  0  0  0  0  0  0  0  0  0  0  0
   15.8909   -4.3106   18.3792 C   0  0  0  0  0  0  0  0  0  0  0  0
   14.5917   -4.1685   18.5241 N   0  0  0  0  0  0  0  0  0  0  0  0
   14.3675   -2.9218   19.0551 N   0  0  0  0  0  0  0  0  0  0  0  0
   15.5389   -2.3635   19.2526 C   0  0  0  0  0  0  0  0  0  0  0  0
   16.5394   -3.1237   18.7065 N   0  0  0  0  0  0  0  0  0  0  0  0
   17.5111   -0.9039   16.2662 N   0  0  0  0  0  0  0  0  0  0  0  0
   16.3147   -0.4156   15.8909 N   0  0  0  0  0  0  0  0  0  0  0  0
   15.6458    0.1730   16.9317 C   0  0  0  0  0  0  0  0  0  0  0  0
   14.1787    0.3634   16.8394 C   0  0  0  0  0  0  0  0  0  0  0  0
   13.5733   -0.6839   15.9271 C   0  0  0  0  0  0  0  0  0  0  0  0
   12.3164   -1.2221   16.1849 C   0  0  0  0  0  0  0  0  0  0  0  0
   11.6991   -2.0824   15.2879 C   0  0  0  0  0  0  0  0  0  0  0  0
   12.3181   -2.3601   14.0838 C   0  0  0  0  0  0  0  0  0  0  0  0
   13.5926   -1.8601   13.8209 C   0  0  0  0  0  0  0  0  0  0  0  0
   14.2596   -1.0879   14.7726 C   0  0  0  0  0  0  0  0  0  0  0  0
   15.7081   -0.7067   14.5901 C   0  0  0  0  0  0  0  0  0  0  0  0
   15.4007    0.9366   19.6306 H   0  0  0  0  0  0  0  0  0  0  0  0
   17.1415    0.8910   19.9426 H   0  0  0  0  0  0  0  0  0  0  0  0
   16.4495    2.2147   18.9992 H   0  0  0  0  0  0  0  0  0  0  0  0
   19.7192   -3.8531   17.8378 H   0  0  0  0  0  0  0  0  0  0  0  0
   18.6668   -6.0708   17.5673 H   0  0  0  0  0  0  0  0  0  0  0  0
   16.2622   -6.3820   17.8614 H   0  0  0  0  0  0  0  0  0  0  0  0
   15.7080   -1.4343   19.7669 H   0  0  0  0  0  0  0  0  0  0  0  0
   13.7368    0.2843   17.8391 H   0  0  0  0  0  0  0  0  0  0  0  0
   13.9479    1.3599   16.4461 H   0  0  0  0  0  0  0  0  0  0  0  0
   11.7953   -0.9402   17.0801 H   0  0  0  0  0  0  0  0  0  0  0  0
   10.7103   -2.4809   15.4789 H   0  0  0  0  0  0  0  0  0  0  0  0
   11.8119   -2.9825   13.3510 H   0  0  0  0  0  0  0  0  0  0  0  0
   14.0824   -2.1236   12.8852 H   0  0  0  0  0  0  0  0  0  0  0  0
   16.2765   -1.5298   14.1441 H   0  0  0  0  0  0  0  0  0  0  0  0
   15.8063    0.1973   13.9813 H   0  0  0  0  0  0  0  0  0  0  0  0
  1  2  1  0
  2  3  1  0
  3  4  1  0
  4  5  1  0
  5  6  2  0
  6  7  1  0
  7  8  2  0
  8  9  1  0
  9 10  2  0
 10 11  1  0
 11 12  2  0
 12 13  1  0
  3 14  2  0
 14 15  1  0
 15 16  1  0
 16 17  1  0
 17 18  1  0
 18 19  2  0
 19 20  1  0
 20 21  2  0
 21 22  1  0
 22 23  2  0
 23 24  1  0
 16  2  2  0
 23 18  1  0
 13  5  1  0
 24 15  1  0
 13  9  1  0
  1 25  1  0
  1 26  1  0
  1 27  1  0
  6 28  1  0
  7 29  1  0
  8 30  1  0
 12 31  1  0
 17 32  1  0
 17 33  1  0
 19 34  1  0
 20 35  1  0
 21 36  1  0
 22 37  1  0
 24 38  1  0
 24 39  1  0
M  END
>  <Energy>  (367) 
89.776049862319908

>  <compound_id>  (367) 
1681

>  <target_id>  (367) 
1

>  <reference_id>  (367) 
15

>  <inspiration_ids>  (367) 
[15, 93]

>  <energy_score>  (367) 
-24.482262769699844

>  <distance_score>  (367) 
2.2589572971389655

>  <path>  (367) 
/opt/xchem-fragalysis-2/maxwin/BulkDock/SCRATCH/505732/C1681-P15/C1681-P15.minimised.mol

>  <scratch_subdir>  (367) 
/opt/xchem-fragalysis-2/maxwin/BulkDock/SCRATCH/505732/C1681-P15

>  <fragmenstein_runtime>  (367) 
2.8430020809173584

>  <fragmenstein_outcome>  (367) 
too moved

>  <fragmenstein_mode>  (367) 
expansion

>  <fragmenstein_error>  (367) 


$$$$
C1681-P93
     RDKit          3D

 39 43  0  0  0  0  0  0  0  0999 V2000
   16.9041    0.5177   19.2897 C   0  0  0  0  0  0  0  0  0  0  0  0
   16.7655    0.2422   17.8400 C   0  0  0  0  0  0  0  0  0  0  0  0
   17.7365   -0.1734   16.8890 C   0  0  0  0  0  0  0  0  0  0  0  0
   19.0586   -1.2906   17.3188 S   0  0  0  0  0  0  0  0  0  0  0  0
   18.0426   -2.7050   17.0522 C   0  0  0  0  0  0  0  0  0  0  0  0
   18.0235   -3.2927   15.8378 C   0  0  0  0  0  0  0  0  0  0  0  0
   16.9189   -4.1739   15.4952 C   0  0  0  0  0  0  0  0  0  0  0  0
   15.8844   -4.3781   16.3319 C   0  0  0  0  0  0  0  0  0  0  0  0
   15.9302   -3.8383   17.6359 C   0  0  0  0  0  0  0  0  0  0  0  0
   15.0871   -3.8792   18.6429 N   0  0  0  0  0  0  0  0  0  0  0  0
   15.6354   -3.1551   19.6698 N   0  0  0  0  0  0  0  0  0  0  0  0
   16.8239   -2.7467   19.2847 C   0  0  0  0  0  0  0  0  0  0  0  0
   17.0339   -3.0598   17.9686 N   0  0  0  0  0  0  0  0  0  0  0  0
   17.2766   -0.1344   15.6278 N   0  0  0  0  0  0  0  0  0  0  0  0
   15.9488    0.0239   15.8064 N   0  0  0  0  0  0  0  0  0  0  0  0
   15.6091   -0.0235   17.1345 C   0  0  0  0  0  0  0  0  0  0  0  0
   14.2445   -0.4378   17.5227 C   0  0  0  0  0  0  0  0  0  0  0  0
   13.6427   -1.3350   16.4558 C   0  0  0  0  0  0  0  0  0  0  0  0
   12.8519   -2.4383   16.7833 C   0  0  0  0  0  0  0  0  0  0  0  0
   12.1166   -3.0987   15.8081 C   0  0  0  0  0  0  0  0  0  0  0  0
   12.1749   -2.6591   14.4930 C   0  0  0  0  0  0  0  0  0  0  0  0
   13.0771   -1.6601   14.1282 C   0  0  0  0  0  0  0  0  0  0  0  0
   13.8627   -1.0338   15.0987 C   0  0  0  0  0  0  0  0  0  0  0  0
   14.9761   -0.0820   14.7132 C   0  0  0  0  0  0  0  0  0  0  0  0
   16.1459   -0.0088   19.8768 H   0  0  0  0  0  0  0  0  0  0  0  0
   17.8907    0.2405   19.6711 H   0  0  0  0  0  0  0  0  0  0  0  0
   16.7734    1.5903   19.4690 H   0  0  0  0  0  0  0  0  0  0  0  0
   18.7004   -2.9990   15.0405 H   0  0  0  0  0  0  0  0  0  0  0  0
   16.8987   -4.5638   14.4860 H   0  0  0  0  0  0  0  0  0  0  0  0
   15.0018   -4.9181   16.0166 H   0  0  0  0  0  0  0  0  0  0  0  0
   17.5395   -2.2139   19.8916 H   0  0  0  0  0  0  0  0  0  0  0  0
   14.2843   -0.9655   18.4798 H   0  0  0  0  0  0  0  0  0  0  0  0
   13.6075    0.4442   17.6479 H   0  0  0  0  0  0  0  0  0  0  0  0
   12.8055   -2.8070   17.8036 H   0  0  0  0  0  0  0  0  0  0  0  0
   11.4944   -3.9491   16.0715 H   0  0  0  0  0  0  0  0  0  0  0  0
   11.5724   -3.1457   13.7298 H   0  0  0  0  0  0  0  0  0  0  0  0
   13.1861   -1.4053   13.0771 H   0  0  0  0  0  0  0  0  0  0  0  0
   15.5154   -0.4485   13.8335 H   0  0  0  0  0  0  0  0  0  0  0  0
   14.5891    0.9254   14.5325 H   0  0  0  0  0  0  0  0  0  0  0  0
  1  2  1  0
  2  3  1  0
  3  4  1  0
  4  5  1  0
  5  6  2  0
  6  7  1  0
  7  8  2  0
  8  9  1  0
  9 10  2  0
 10 11  1  0
 11 12  2  0
 12 13  1  0
  3 14  2  0
 14 15  1  0
 15 16  1  0
 16 17  1  0
 17 18  1  0
 18 19  2  0
 19 20  1  0
 20 21  2  0
 21 22  1  0
 22 23  2  0
 23 24  1  0
 16  2  2  0
 23 18  1  0
 13  5  1  0
 24 15  1  0
 13  9  1  0
  1 25  1  0
  1 26  1  0
  1 27  1  0
  6 28  1  0
  7 29  1  0
  8 30  1  0
 12 31  1  0
 17 32  1  0
 17 33  1  0
 19 34  1  0
 20 35  1  0
 21 36  1  0
 22 37  1  0
 24 38  1  0
 24 39  1  0
M  END
>  <Energy>  (368) 
101.9460957034634

>  <compound_id>  (368) 
1681

>  <target_id>  (368) 
1

>  <reference_id>  (368) 
93

>  <inspiration_ids>  (368) 
[15, 93]

>  <energy_score>  (368) 
-12.312216928557575

>  <distance_score>  (368) 
1.7080236799656254

>  <path>  (368) 
/opt/xchem-fragalysis-2/maxwin/BulkDock/SCRATCH/505732/C1681-P93/C1681-P93.minimised.mol

>  <scratch_subdir>  (368) 
/opt/xchem-fragalysis-2/maxwin/BulkDock/SCRATCH/505732/C1681-P93

>  <fragmenstein_runtime>  (368) 
2.9841232299804688

>  <fragmenstein_outcome>  (368) 
too moved

>  <fragmenstein_mode>  (368) 
expansion

>  <fragmenstein_error>  (368) 


$$$$
C1682-P15
     RDKit          3D

 30 31  0  0  0  0  0  0  0  0999 V2000
   15.9022   -3.1297   17.8563 O   0  0  0  0  0  0  0  0  0  0  0  0
   16.4548   -2.8444   16.7956 C   0  0  0  0  0  0  0  0  0  0  0  0
   17.5050   -3.7720   16.1997 C   0  0  0  0  0  0  0  0  0  0  0  0
   17.7476   -3.5216   14.7382 C   0  0  0  0  0  0  0  0  0  0  0  0
   19.0696   -4.8138   13.7866 I   0  0  0  0  0  0  0  0  0  0  0  0
   17.2117   -2.4897   14.0741 C   0  0  0  0  0  0  0  0  0  0  0  0
   16.4882   -1.5159   14.9110 C   0  0  0  0  0  0  0  0  0  0  0  0
   16.1003   -0.1954   14.2747 C   0  0  0  0  0  0  0  0  0  0  0  0
   16.5505    0.0786   13.1689 O   0  0  0  0  0  0  0  0  0  0  0  0
   15.2408    0.7223   15.0793 C   0  0  0  0  0  0  0  0  0  0  0  0
   13.5336    0.4882   14.7611 S   0  0  0  0  0  0  0  0  0  0  0  0
   13.3560    0.4560   13.3215 O   0  0  0  0  0  0  0  0  0  0  0  0
   12.8110    1.4632   15.5590 O   0  0  0  0  0  0  0  0  0  0  0  0
   13.0048   -1.0835   15.3691 C   0  0  0  0  0  0  0  0  0  0  0  0
   12.1568   -1.8466   14.5688 C   0  0  0  0  0  0  0  0  0  0  0  0
   11.6988   -3.0738   15.0290 C   0  0  0  0  0  0  0  0  0  0  0  0
   12.1299   -3.5679   16.2554 C   0  0  0  0  0  0  0  0  0  0  0  0
   12.9517   -2.7929   17.0634 C   0  0  0  0  0  0  0  0  0  0  0  0
   13.3560   -1.5260   16.6412 C   0  0  0  0  0  0  0  0  0  0  0  0
   16.1924   -1.6568   16.1589 N   0  0  0  0  0  0  0  0  0  0  0  0
   17.1480   -4.7985   16.3453 H   0  0  0  0  0  0  0  0  0  0  0  0
   18.4306   -3.6321   16.7690 H   0  0  0  0  0  0  0  0  0  0  0  0
   17.3817   -2.2806   13.0245 H   0  0  0  0  0  0  0  0  0  0  0  0
   15.4386    0.6704   16.1511 H   0  0  0  0  0  0  0  0  0  0  0  0
   15.4784    1.7488   14.7762 H   0  0  0  0  0  0  0  0  0  0  0  0
   11.8218   -1.4866   13.5975 H   0  0  0  0  0  0  0  0  0  0  0  0
   11.0192   -3.6516   14.4121 H   0  0  0  0  0  0  0  0  0  0  0  0
   11.8082   -4.5492   16.5918 H   0  0  0  0  0  0  0  0  0  0  0  0
   13.2634   -3.1677   18.0375 H   0  0  0  0  0  0  0  0  0  0  0  0
   13.9568   -0.9167   17.3119 H   0  0  0  0  0  0  0  0  0  0  0  0
  1  2  2  0
  2  3  1  0
  3  4  1  0
  4  5  1  0
  4  6  2  0
  6  7  1  0
  7  8  1  0
  8  9  2  0
  8 10  1  0
 10 11  1  0
 11 12  2  0
 11 13  2  0
 11 14  1  0
 14 15  2  0
 15 16  1  0
 16 17  2  0
 17 18  1  0
 18 19  2  0
  7 20  2  0
 20  2  1  0
 19 14  1  0
  3 21  1  0
  3 22  1  0
  6 23  1  0
 10 24  1  0
 10 25  1  0
 15 26  1  0
 16 27  1  0
 17 28  1  0
 18 29  1  0
 19 30  1  0
M  END
>  <Energy>  (369) 
32.887076184125718

>  <compound_id>  (369) 
1682

>  <target_id>  (369) 
1

>  <reference_id>  (369) 
15

>  <inspiration_ids>  (369) 
[15, 97]

>  <energy_score>  (369) 
-20.287956484260903

>  <distance_score>  (369) 
1.1301913448354621

>  <path>  (369) 
/opt/xchem-fragalysis-2/maxwin/BulkDock/SCRATCH/505732/C1682-P15/C1682-P15.minimised.mol

>  <scratch_subdir>  (369) 
/opt/xchem-fragalysis-2/maxwin/BulkDock/SCRATCH/505732/C1682-P15

>  <fragmenstein_runtime>  (369) 
19.186363697052002

>  <fragmenstein_outcome>  (369) 
too moved

>  <fragmenstein_mode>  (369) 
expansion

>  <fragmenstein_error>  (369) 


$$$$
C1682-P97
     RDKit          3D

 30 31  0  0  0  0  0  0  0  0999 V2000
   16.0625   -3.1070   17.8277 O   0  0  0  0  0  0  0  0  0  0  0  0
   16.6015   -2.8253   16.7591 C   0  0  0  0  0  0  0  0  0  0  0  0
   17.6696   -3.7324   16.1635 C   0  0  0  0  0  0  0  0  0  0  0  0
   17.8708   -3.5062   14.6910 C   0  0  0  0  0  0  0  0  0  0  0  0
   19.2111   -4.7765   13.7340 I   0  0  0  0  0  0  0  0  0  0  0  0
   17.2875   -2.5071   14.0164 C   0  0  0  0  0  0  0  0  0  0  0  0
   16.5553   -1.5363   14.8482 C   0  0  0  0  0  0  0  0  0  0  0  0
   16.0938   -0.2505   14.1891 C   0  0  0  0  0  0  0  0  0  0  0  0
   16.4256   -0.0304   13.0309 O   0  0  0  0  0  0  0  0  0  0  0  0
   15.3032    0.6969   15.0278 C   0  0  0  0  0  0  0  0  0  0  0  0
   13.5749    0.4943   14.8250 S   0  0  0  0  0  0  0  0  0  0  0  0
   13.2870    0.5660   13.4051 O   0  0  0  0  0  0  0  0  0  0  0  0
   12.9292    1.4167   15.7442 O   0  0  0  0  0  0  0  0  0  0  0  0
   13.0735   -1.1105   15.3632 C   0  0  0  0  0  0  0  0  0  0  0  0
   12.1748   -1.8249   14.5746 C   0  0  0  0  0  0  0  0  0  0  0  0
   11.7145   -3.0616   15.0082 C   0  0  0  0  0  0  0  0  0  0  0  0
   12.1928   -3.6127   16.1927 C   0  0  0  0  0  0  0  0  0  0  0  0
   13.0905   -2.9007   16.9735 C   0  0  0  0  0  0  0  0  0  0  0  0
   13.4884   -1.6206   16.5886 C   0  0  0  0  0  0  0  0  0  0  0  0
   16.3017   -1.6549   16.1075 N   0  0  0  0  0  0  0  0  0  0  0  0
   17.3500   -4.7663   16.3394 H   0  0  0  0  0  0  0  0  0  0  0  0
   18.6019   -3.5489   16.7088 H   0  0  0  0  0  0  0  0  0  0  0  0
   17.4258   -2.3187   12.9583 H   0  0  0  0  0  0  0  0  0  0  0  0
   15.5625    0.6530   16.0871 H   0  0  0  0  0  0  0  0  0  0  0  0
   15.5438    1.7145   14.6989 H   0  0  0  0  0  0  0  0  0  0  0  0
   11.7969   -1.4172   13.6390 H   0  0  0  0  0  0  0  0  0  0  0  0
   10.9958   -3.6044   14.4043 H   0  0  0  0  0  0  0  0  0  0  0  0
   11.8528   -4.5917   16.5214 H   0  0  0  0  0  0  0  0  0  0  0  0
   13.4472   -3.3269   17.9100 H   0  0  0  0  0  0  0  0  0  0  0  0
   14.1251   -1.0473   17.2580 H   0  0  0  0  0  0  0  0  0  0  0  0
  1  2  2  0
  2  3  1  0
  3  4  1  0
  4  5  1  0
  4  6  2  0
  6  7  1  0
  7  8  1  0
  8  9  2  0
  8 10  1  0
 10 11  1  0
 11 12  2  0
 11 13  2  0
 11 14  1  0
 14 15  2  0
 15 16  1  0
 16 17  2  0
 17 18  1  0
 18 19  2  0
  7 20  2  0
 20  2  1  0
 19 14  1  0
  3 21  1  0
  3 22  1  0
  6 23  1  0
 10 24  1  0
 10 25  1  0
 15 26  1  0
 16 27  1  0
 17 28  1  0
 18 29  1  0
 19 30  1  0
M  END
>  <Energy>  (370) 
33.649126114645277

>  <compound_id>  (370) 
1682

>  <target_id>  (370) 
1

>  <reference_id>  (370) 
97

>  <inspiration_ids>  (370) 
[15, 97]

>  <energy_score>  (370) 
-19.525906553741166

>  <distance_score>  (370) 
1.1311744841153106

>  <path>  (370) 
/opt/xchem-fragalysis-2/maxwin/BulkDock/SCRATCH/505732/C1682-P97/C1682-P97.minimised.mol

>  <scratch_subdir>  (370) 
/opt/xchem-fragalysis-2/maxwin/BulkDock/SCRATCH/505732/C1682-P97

>  <fragmenstein_runtime>  (370) 
19.77579092979431

>  <fragmenstein_outcome>  (370) 
too moved

>  <fragmenstein_mode>  (370) 
expansion

>  <fragmenstein_error>  (370) 


$$$$
C1372-P15
     RDKit          3D

 39 41  0  0  0  0  0  0  0  0999 V2000
   14.4685   -5.1860   18.2125 O   0  0  0  0  0  0  0  0  0  0  0  0
   14.4053   -4.0276   17.8067 C   0  0  0  0  0  0  0  0  0  0  0  0
   13.0976   -3.4804   17.2800 C   0  0  0  0  0  0  0  0  0  0  0  0
   13.3065   -2.5039   16.1638 C   0  0  0  0  0  0  0  0  0  0  0  0
   11.6859   -2.2167   14.9194 I   0  0  0  0  0  0  0  0  0  0  0  0
   14.4902   -1.8990   15.9651 C   0  0  0  0  0  0  0  0  0  0  0  0
   14.8775   -1.2364   14.8441 N   0  0  0  0  0  0  0  0  0  0  0  0
   14.7102   -0.0945   14.6021 C   0  0  0  0  0  0  0  0  0  0  0  0
   14.9714    0.7058   13.3006 N   0  0  0  0  0  0  0  0  0  0  0  0
   15.5572    0.3150   12.1000 C   0  0  0  0  0  0  0  0  0  0  0  0
   15.6563    1.2369   11.0485 C   0  0  0  0  0  0  0  0  0  0  0  0
   16.2476    0.8864    9.8301 C   0  0  0  0  0  0  0  0  0  0  0  0
   16.7528   -0.3972    9.6441 C   0  0  0  0  0  0  0  0  0  0  0  0
   16.6560   -1.3288   10.6732 C   0  0  0  0  0  0  0  0  0  0  0  0
   16.0575   -0.9740   11.8871 C   0  0  0  0  0  0  0  0  0  0  0  0
   14.1591    1.0261   15.4712 N   0  0  0  0  0  0  0  0  0  0  0  0
   13.5634    0.9930   16.8762 C   0  0  0  0  0  0  0  0  0  0  0  0
   13.4248    2.4039   17.4090 C   0  0  0  0  0  0  0  0  0  0  0  0
   14.7293    2.9642   16.9634 C   0  0  0  0  0  0  0  0  0  0  0  0
   15.3120    1.7515   16.2722 C   0  0  0  0  0  0  0  0  0  0  0  0
   15.5097   -2.2125   17.0014 C   0  0  0  0  0  0  0  0  0  0  0  0
   15.4675   -3.1577   17.8817 N   0  0  0  0  0  0  0  0  0  0  0  0
   12.4993   -4.3354   16.9452 H   0  0  0  0  0  0  0  0  0  0  0  0
   12.5976   -2.9985   18.1143 H   0  0  0  0  0  0  0  0  0  0  0  0
   14.6380    1.6510   13.4148 H   0  0  0  0  0  0  0  0  0  0  0  0
   15.2728    2.2467   11.1711 H   0  0  0  0  0  0  0  0  0  0  0  0
   16.3195    1.6212    9.0325 H   0  0  0  0  0  0  0  0  0  0  0  0
   17.2296   -0.6649    8.7052 H   0  0  0  0  0  0  0  0  0  0  0  0
   17.0548   -2.3313   10.5483 H   0  0  0  0  0  0  0  0  0  0  0  0
   15.9956   -1.7268   12.6688 H   0  0  0  0  0  0  0  0  0  0  0  0
   12.5607    0.5682   16.7650 H   0  0  0  0  0  0  0  0  0  0  0  0
   14.0800    0.3156   17.5743 H   0  0  0  0  0  0  0  0  0  0  0  0
   13.2947    2.4240   18.4941 H   0  0  0  0  0  0  0  0  0  0  0  0
   12.5856    2.9317   16.9438 H   0  0  0  0  0  0  0  0  0  0  0  0
   14.5821    3.7940   16.2639 H   0  0  0  0  0  0  0  0  0  0  0  0
   15.3602    3.3106   17.7867 H   0  0  0  0  0  0  0  0  0  0  0  0
   16.0462    2.0949   15.5318 H   0  0  0  0  0  0  0  0  0  0  0  0
   15.8675    1.0662   16.9332 H   0  0  0  0  0  0  0  0  0  0  0  0
   16.3902   -1.5479   16.9962 H   0  0  0  0  0  0  0  0  0  0  0  0
  1  2  2  0
  2  3  1  0
  3  4  1  0
  4  5  1  0
  4  6  2  0
  6  7  1  0
  7  8  2  3
  8  9  1  0
  9 10  1  0
 10 11  2  0
 11 12  1  0
 12 13  2  0
 13 14  1  0
 14 15  2  0
  8 16  1  0
 16 17  1  0
 17 18  1  0
 18 19  1  0
 19 20  1  0
  6 21  1  0
 21 22  2  0
 22  2  1  0
 15 10  1  0
 20 16  1  0
  3 23  1  0
  3 24  1  0
  9 25  1  0
 11 26  1  0
 12 27  1  0
 13 28  1  0
 14 29  1  0
 15 30  1  0
 17 31  1  0
 17 32  1  0
 18 33  1  0
 18 34  1  0
 19 35  1  0
 19 36  1  0
 20 37  1  0
 20 38  1  0
 21 39  1  0
M  END
>  <Energy>  (371) 
59.949428259105026

>  <compound_id>  (371) 
1372

>  <target_id>  (371) 
1

>  <reference_id>  (371) 
15

>  <inspiration_ids>  (371) 
[15, 103]

>  <energy_score>  (371) 
20.151400184694182

>  <distance_score>  (371) 
1.3166536727427207

>  <path>  (371) 
/opt/xchem-fragalysis-2/maxwin/BulkDock/SCRATCH/505732/C1372-P15/C1372-P15.minimised.mol

>  <scratch_subdir>  (371) 
/opt/xchem-fragalysis-2/maxwin/BulkDock/SCRATCH/505732/C1372-P15

>  <fragmenstein_runtime>  (371) 
1.6326255798339844

>  <fragmenstein_outcome>  (371) 
too moved

>  <fragmenstein_mode>  (371) 
expansion

>  <fragmenstein_error>  (371) 


$$$$
C1372-P103
     RDKit          3D

 39 41  0  0  0  0  0  0  0  0999 V2000
   14.3138   -5.2493   18.5881 O   0  0  0  0  0  0  0  0  0  0  0  0
   14.1934   -4.1145   18.1271 C   0  0  0  0  0  0  0  0  0  0  0  0
   13.3440   -3.9309   16.8864 C   0  0  0  0  0  0  0  0  0  0  0  0
   13.1185   -2.5170   16.4749 C   0  0  0  0  0  0  0  0  0  0  0  0
   11.7358   -2.2191   14.9573 I   0  0  0  0  0  0  0  0  0  0  0  0
   13.7517   -1.4924   17.0609 C   0  0  0  0  0  0  0  0  0  0  0  0
   13.4650   -0.1846   16.8443 N   0  0  0  0  0  0  0  0  0  0  0  0
   14.2526    0.6305   16.5242 C   0  0  0  0  0  0  0  0  0  0  0  0
   15.7250    0.4766   16.0325 N   0  0  0  0  0  0  0  0  0  0  0  0
   16.5287   -0.6525   15.9282 C   0  0  0  0  0  0  0  0  0  0  0  0
   17.7066   -0.7441   16.6771 C   0  0  0  0  0  0  0  0  0  0  0  0
   18.5094   -1.8851   16.6066 C   0  0  0  0  0  0  0  0  0  0  0  0
   18.1486   -2.9403   15.7721 C   0  0  0  0  0  0  0  0  0  0  0  0
   16.9927   -2.8497   15.0014 C   0  0  0  0  0  0  0  0  0  0  0  0
   16.1913   -1.7093   15.0773 C   0  0  0  0  0  0  0  0  0  0  0  0
   14.1063    2.1125   16.3744 N   0  0  0  0  0  0  0  0  0  0  0  0
   12.8771    3.0070   16.4887 C   0  0  0  0  0  0  0  0  0  0  0  0
   13.2534    4.4590   16.6110 C   0  0  0  0  0  0  0  0  0  0  0  0
   14.4489    4.3432   17.4818 C   0  0  0  0  0  0  0  0  0  0  0  0
   14.4389    2.8608   17.7228 C   0  0  0  0  0  0  0  0  0  0  0  0
   14.6446   -1.8714   18.1877 C   0  0  0  0  0  0  0  0  0  0  0  0
   14.8503   -3.0455   18.6765 N   0  0  0  0  0  0  0  0  0  0  0  0
   13.8590   -4.4710   16.0925 H   0  0  0  0  0  0  0  0  0  0  0  0
   12.3831   -4.4178   17.0810 H   0  0  0  0  0  0  0  0  0  0  0  0
   16.1407    1.3906   15.9210 H   0  0  0  0  0  0  0  0  0  0  0  0
   17.9965    0.0657   17.3414 H   0  0  0  0  0  0  0  0  0  0  0  0
   19.4126   -1.9526   17.2074 H   0  0  0  0  0  0  0  0  0  0  0  0
   18.7703   -3.8303   15.7184 H   0  0  0  0  0  0  0  0  0  0  0  0
   16.7173   -3.6634   14.3361 H   0  0  0  0  0  0  0  0  0  0  0  0
   15.3043   -1.6391   14.4519 H   0  0  0  0  0  0  0  0  0  0  0  0
   12.3158    2.8742   15.5545 H   0  0  0  0  0  0  0  0  0  0  0  0
   12.1837    2.6531   17.2633 H   0  0  0  0  0  0  0  0  0  0  0  0
   12.4489    5.0543   17.0524 H   0  0  0  0  0  0  0  0  0  0  0  0
   13.5136    4.8949   15.6405 H   0  0  0  0  0  0  0  0  0  0  0  0
   15.3544    4.6583   16.9518 H   0  0  0  0  0  0  0  0  0  0  0  0
   14.3716    4.9172   18.4092 H   0  0  0  0  0  0  0  0  0  0  0  0
   15.4510    2.5504   18.0146 H   0  0  0  0  0  0  0  0  0  0  0  0
   13.7900    2.5348   18.5534 H   0  0  0  0  0  0  0  0  0  0  0  0
   15.1659   -1.0262   18.6685 H   0  0  0  0  0  0  0  0  0  0  0  0
  1  2  2  0
  2  3  1  0
  3  4  1  0
  4  5  1  0
  4  6  2  0
  6  7  1  0
  7  8  2  3
  8  9  1  0
  9 10  1  0
 10 11  2  0
 11 12  1  0
 12 13  2  0
 13 14  1  0
 14 15  2  0
  8 16  1  0
 16 17  1  0
 17 18  1  0
 18 19  1  0
 19 20  1  0
  6 21  1  0
 21 22  2  0
 22  2  1  0
 15 10  1  0
 20 16  1  0
  3 23  1  0
  3 24  1  0
  9 25  1  0
 11 26  1  0
 12 27  1  0
 13 28  1  0
 14 29  1  0
 15 30  1  0
 17 31  1  0
 17 32  1  0
 18 33  1  0
 18 34  1  0
 19 35  1  0
 19 36  1  0
 20 37  1  0
 20 38  1  0
 21 39  1  0
M  END
>  <Energy>  (372) 
60.717300317754379

>  <compound_id>  (372) 
1372

>  <target_id>  (372) 
1

>  <reference_id>  (372) 
103

>  <inspiration_ids>  (372) 
[15, 103]

>  <energy_score>  (372) 
20.919272243346683

>  <distance_score>  (372) 
1.7205181454104554

>  <path>  (372) 
/opt/xchem-fragalysis-2/maxwin/BulkDock/SCRATCH/505732/C1372-P103/C1372-P103.minimised.mol

>  <scratch_subdir>  (372) 
/opt/xchem-fragalysis-2/maxwin/BulkDock/SCRATCH/505732/C1372-P103

>  <fragmenstein_runtime>  (372) 
1.782416820526123

>  <fragmenstein_outcome>  (372) 
too moved

>  <fragmenstein_mode>  (372) 
expansion

>  <fragmenstein_error>  (372) 


$$$$
C1685-P15
     RDKit          3D

 28 29  0  0  0  0  0  0  0  0999 V2000
   14.8490    2.4434   18.7876 C   0  0  0  0  0  0  0  0  0  0  0  0
   14.7120    1.7344   17.4448 C   0  0  0  0  0  0  0  0  0  0  0  0
   14.8091    0.2074   17.6062 C   0  0  0  0  0  0  0  0  0  0  0  0
   14.3127   -0.6125   16.3537 C   0  0  0  0  0  0  0  0  0  0  0  0
   15.4394   -1.5644   15.9870 C   0  0  0  0  0  0  0  0  0  0  0  0
   15.5548   -2.8188   16.3002 N   0  0  0  0  0  0  0  0  0  0  0  0
   14.5983   -3.4923   17.0253 C   0  0  0  0  0  0  0  0  0  0  0  0
   14.6822   -4.6927   17.2917 O   0  0  0  0  0  0  0  0  0  0  0  0
   13.4797   -2.6791   17.6149 C   0  0  0  0  0  0  0  0  0  0  0  0
   13.8834   -2.1951   18.8274 F   0  0  0  0  0  0  0  0  0  0  0  0
   13.0903   -1.4988   16.7126 C   0  0  0  0  0  0  0  0  0  0  0  0
   11.9236   -2.2505   15.0373 I   0  0  0  0  0  0  0  0  0  0  0  0
   14.0797    0.3988   15.1935 C   0  0  0  0  0  0  0  0  0  0  0  0
   13.1452    1.5173   15.5993 C   0  0  0  0  0  0  0  0  0  0  0  0
   12.2054    1.9090   14.9241 O   0  0  0  0  0  0  0  0  0  0  0  0
   13.4578    2.0639   16.8108 N   0  0  0  0  0  0  0  0  0  0  0  0
   14.0387    2.1664   19.4708 H   0  0  0  0  0  0  0  0  0  0  0  0
   15.8018    2.1939   19.2655 H   0  0  0  0  0  0  0  0  0  0  0  0
   14.8087    3.5303   18.6565 H   0  0  0  0  0  0  0  0  0  0  0  0
   15.5168    2.0837   16.7859 H   0  0  0  0  0  0  0  0  0  0  0  0
   15.8423   -0.0541   17.8697 H   0  0  0  0  0  0  0  0  0  0  0  0
   14.2040   -0.0591   18.4797 H   0  0  0  0  0  0  0  0  0  0  0  0
   16.2827   -1.1257   15.4230 H   0  0  0  0  0  0  0  0  0  0  0  0
   12.6319   -3.3444   17.7957 H   0  0  0  0  0  0  0  0  0  0  0  0
   12.3886   -0.8590   17.2499 H   0  0  0  0  0  0  0  0  0  0  0  0
   15.0295    0.8550   14.8816 H   0  0  0  0  0  0  0  0  0  0  0  0
   13.7001   -0.0794   14.2872 H   0  0  0  0  0  0  0  0  0  0  0  0
   12.9365    2.8981   17.0684 H   0  0  0  0  0  0  0  0  0  0  0  0
  1  2  1  0
  2  3  1  0
  3  4  1  0
  4  5  1  0
  5  6  2  0
  6  7  1  0
  7  8  2  0
  7  9  1  0
  9 10  1  0
  9 11  1  0
 11 12  1  0
  4 13  1  0
 13 14  1  0
 14 15  2  0
 14 16  1  0
 16  2  1  0
 11  4  1  0
  1 17  1  0
  1 18  1  0
  1 19  1  0
  2 20  1  0
  3 21  1  0
  3 22  1  0
  5 23  1  0
  9 24  1  0
 11 25  1  0
 13 26  1  0
 13 27  1  0
 16 28  1  0
M  END
>  <Energy>  (373) 
18.76037604004425

>  <compound_id>  (373) 
1685

>  <target_id>  (373) 
1

>  <reference_id>  (373) 
15

>  <inspiration_ids>  (373) 
[15, 113]

>  <energy_score>  (373) 
-44.91273427445232

>  <distance_score>  (373) 
2.1814208910928925

>  <path>  (373) 
/opt/xchem-fragalysis-2/maxwin/BulkDock/SCRATCH/505732/C1685-P15/C1685-P15.minimised.mol

>  <scratch_subdir>  (373) 
/opt/xchem-fragalysis-2/maxwin/BulkDock/SCRATCH/505732/C1685-P15

>  <fragmenstein_runtime>  (373) 
1.0623278617858887

>  <fragmenstein_outcome>  (373) 
too moved

>  <fragmenstein_mode>  (373) 
expansion

>  <fragmenstein_error>  (373) 


$$$$
C1685-P113
     RDKit          3D

 28 29  0  0  0  0  0  0  0  0999 V2000
   15.9038    2.1994   18.4957 C   0  0  0  0  0  0  0  0  0  0  0  0
   15.3696    1.5316   17.2321 C   0  0  0  0  0  0  0  0  0  0  0  0
   14.5218    0.3126   17.5807 C   0  0  0  0  0  0  0  0  0  0  0  0
   13.9755   -0.4028   16.3207 C   0  0  0  0  0  0  0  0  0  0  0  0
   15.1232   -1.2129   15.7468 C   0  0  0  0  0  0  0  0  0  0  0  0
   15.4387   -2.4352   16.0470 N   0  0  0  0  0  0  0  0  0  0  0  0
   14.7042   -3.2051   16.9216 C   0  0  0  0  0  0  0  0  0  0  0  0
   15.0758   -4.3173   17.2972 O   0  0  0  0  0  0  0  0  0  0  0  0
   13.4566   -2.6162   17.5184 C   0  0  0  0  0  0  0  0  0  0  0  0
   13.7645   -2.1413   18.7626 F   0  0  0  0  0  0  0  0  0  0  0  0
   12.9003   -1.4605   16.6874 C   0  0  0  0  0  0  0  0  0  0  0  0
   11.7540   -2.2430   14.9841 I   0  0  0  0  0  0  0  0  0  0  0  0
   13.4169    0.6458   15.3158 C   0  0  0  0  0  0  0  0  0  0  0  0
   13.8571    2.0883   15.3917 C   0  0  0  0  0  0  0  0  0  0  0  0
   13.5286    2.9118   14.5431 O   0  0  0  0  0  0  0  0  0  0  0  0
   14.5876    2.4651   16.4665 N   0  0  0  0  0  0  0  0  0  0  0  0
   15.0869    2.5509   19.1361 H   0  0  0  0  0  0  0  0  0  0  0  0
   16.5196    1.5044   19.0758 H   0  0  0  0  0  0  0  0  0  0  0  0
   16.5211    3.0688   18.2440 H   0  0  0  0  0  0  0  0  0  0  0  0
   16.2200    1.2338   16.6072 H   0  0  0  0  0  0  0  0  0  0  0  0
   15.1324   -0.3695   18.1847 H   0  0  0  0  0  0  0  0  0  0  0  0
   13.6790    0.6274   18.2094 H   0  0  0  0  0  0  0  0  0  0  0  0
   15.7900   -0.6887   15.0387 H   0  0  0  0  0  0  0  0  0  0  0  0
   12.7198   -3.4148   17.6475 H   0  0  0  0  0  0  0  0  0  0  0  0
   12.1439   -0.9375   17.2700 H   0  0  0  0  0  0  0  0  0  0  0  0
   13.6172    0.3186   14.2876 H   0  0  0  0  0  0  0  0  0  0  0  0
   12.3283    0.7170   15.4416 H   0  0  0  0  0  0  0  0  0  0  0  0
   14.9022    3.4286   16.4022 H   0  0  0  0  0  0  0  0  0  0  0  0
  1  2  1  0
  2  3  1  0
  3  4  1  0
  4  5  1  0
  5  6  2  0
  6  7  1  0
  7  8  2  0
  7  9  1  0
  9 10  1  0
  9 11  1  0
 11 12  1  0
  4 13  1  0
 13 14  1  0
 14 15  2  0
 14 16  1  0
 16  2  1  0
 11  4  1  0
  1 17  1  0
  1 18  1  0
  1 19  1  0
  2 20  1  0
  3 21  1  0
  3 22  1  0
  5 23  1  0
  9 24  1  0
 11 25  1  0
 13 26  1  0
 13 27  1  0
 16 28  1  0
M  END
>  <Energy>  (374) 
15.69314477808258

>  <compound_id>  (374) 
1685

>  <target_id>  (374) 
1

>  <reference_id>  (374) 
113

>  <inspiration_ids>  (374) 
[15, 113]

>  <energy_score>  (374) 
-47.97996553641353

>  <distance_score>  (374) 
2.2722208411054847

>  <path>  (374) 
/opt/xchem-fragalysis-2/maxwin/BulkDock/SCRATCH/505732/C1685-P113/C1685-P113.minimised.mol

>  <scratch_subdir>  (374) 
/opt/xchem-fragalysis-2/maxwin/BulkDock/SCRATCH/505732/C1685-P113

>  <fragmenstein_runtime>  (374) 
1.0943968296051025

>  <fragmenstein_outcome>  (374) 
too moved

>  <fragmenstein_mode>  (374) 
expansion

>  <fragmenstein_error>  (374) 


$$$$
C1686-P15
     RDKit          3D

 29 30  0  0  0  0  0  0  0  0999 V2000
   14.5812   -5.2560   17.9942 O   0  0  0  0  0  0  0  0  0  0  0  0
   14.4065   -4.0597   17.7894 C   0  0  0  0  0  0  0  0  0  0  0  0
   13.0681   -3.5561   17.3916 C   0  0  0  0  0  0  0  0  0  0  0  0
   13.1280   -2.6003   16.2187 C   0  0  0  0  0  0  0  0  0  0  0  0
   11.6922   -2.3709   15.9849 O   0  0  0  0  0  0  0  0  0  0  0  0
   11.2681   -1.5485   14.8561 C   0  0  0  0  0  0  0  0  0  0  0  0
   12.0219   -0.3301   15.1606 C   0  0  0  0  0  0  0  0  0  0  0  0
   12.3443    1.0880   14.9343 C   0  0  0  0  0  0  0  0  0  0  0  0
   13.6691    1.2127   15.7847 C   0  0  0  0  0  0  0  0  0  0  0  0
   13.9635    0.0805   16.8919 C   0  0  0  0  0  0  0  0  0  0  0  0
   14.2586   -1.4434   16.4798 C   0  0  0  0  0  0  0  0  0  0  0  0
   15.0679   -1.3897   15.2665 O   0  0  0  0  0  0  0  0  0  0  0  0
   15.2911   -1.9716   17.4865 C   0  0  0  0  0  0  0  0  0  0  0  0
   16.3094   -1.1438   17.7822 F   0  0  0  0  0  0  0  0  0  0  0  0
   15.3596   -3.1257   18.0513 N   0  0  0  0  0  0  0  0  0  0  0  0
   12.4197   -4.4070   17.1529 H   0  0  0  0  0  0  0  0  0  0  0  0
   12.6466   -3.0682   18.2674 H   0  0  0  0  0  0  0  0  0  0  0  0
   13.4653   -3.1651   15.3451 H   0  0  0  0  0  0  0  0  0  0  0  0
   10.1877   -1.4146   14.9317 H   0  0  0  0  0  0  0  0  0  0  0  0
   11.5488   -2.0459   13.9243 H   0  0  0  0  0  0  0  0  0  0  0  0
   12.9647   -0.7154   14.7803 H   0  0  0  0  0  0  0  0  0  0  0  0
   11.8428   -0.2884   16.2395 H   0  0  0  0  0  0  0  0  0  0  0  0
   11.5668    1.7521   15.3247 H   0  0  0  0  0  0  0  0  0  0  0  0
   12.5268    1.3362   13.8846 H   0  0  0  0  0  0  0  0  0  0  0  0
   14.5205    1.2333   15.0926 H   0  0  0  0  0  0  0  0  0  0  0  0
   13.6611    2.1888   16.2852 H   0  0  0  0  0  0  0  0  0  0  0  0
   14.8612    0.4713   17.3903 H   0  0  0  0  0  0  0  0  0  0  0  0
   13.2050    0.1030   17.6801 H   0  0  0  0  0  0  0  0  0  0  0  0
   15.8057   -0.7671   15.4099 H   0  0  0  0  0  0  0  0  0  0  0  0
  1  2  2  0
  2  3  1  0
  3  4  1  0
  4  5  1  0
  5  6  1  0
  6  7  1  0
  7  8  1  0
  8  9  1  0
  9 10  1  0
 10 11  1  0
 11 12  1  0
 11 13  1  0
 13 14  1  0
 13 15  2  0
 15  2  1  0
 11  4  1  0
  3 16  1  0
  3 17  1  0
  4 18  1  0
  6 19  1  0
  6 20  1  0
  7 21  1  0
  7 22  1  0
  8 23  1  0
  8 24  1  0
  9 25  1  0
  9 26  1  0
 10 27  1  0
 10 28  1  0
 12 29  1  0
M  END
>  <Energy>  (375) 
136.39367483817966

>  <compound_id>  (375) 
1686

>  <target_id>  (375) 
1

>  <reference_id>  (375) 
15

>  <inspiration_ids>  (375) 
[15, 114]

>  <energy_score>  (375) 
58.54256070505406

>  <distance_score>  (375) 
0.880287499035247

>  <path>  (375) 
/opt/xchem-fragalysis-2/maxwin/BulkDock/SCRATCH/505732/C1686-P15/C1686-P15.minimised.mol

>  <scratch_subdir>  (375) 
/opt/xchem-fragalysis-2/maxwin/BulkDock/SCRATCH/505732/C1686-P15

>  <fragmenstein_runtime>  (375) 
0.6378135681152344

>  <fragmenstein_outcome>  (375) 
too contorted

>  <fragmenstein_mode>  (375) 
expansion

>  <fragmenstein_error>  (375) 


$$$$
C1686-P114
     RDKit          3D

 29 30  0  0  0  0  0  0  0  0999 V2000
   14.5641   -5.2119   18.1057 O   0  0  0  0  0  0  0  0  0  0  0  0
   14.4346   -4.0324   17.7950 C   0  0  0  0  0  0  0  0  0  0  0  0
   13.1145   -3.5260   17.3420 C   0  0  0  0  0  0  0  0  0  0  0  0
   13.1951   -2.5733   16.1675 C   0  0  0  0  0  0  0  0  0  0  0  0
   11.7613   -2.3426   15.9183 O   0  0  0  0  0  0  0  0  0  0  0  0
   11.3384   -1.4712   14.8295 C   0  0  0  0  0  0  0  0  0  0  0  0
   12.0833   -0.2631   15.1904 C   0  0  0  0  0  0  0  0  0  0  0  0
   12.3958    1.1661   15.0272 C   0  0  0  0  0  0  0  0  0  0  0  0
   13.7261    1.2607   15.8725 C   0  0  0  0  0  0  0  0  0  0  0  0
   14.0364    0.0815   16.9238 C   0  0  0  0  0  0  0  0  0  0  0  0
   14.3240   -1.4223   16.4406 C   0  0  0  0  0  0  0  0  0  0  0  0
   15.1083   -1.3196   15.2140 O   0  0  0  0  0  0  0  0  0  0  0  0
   15.3778   -1.9792   17.4032 C   0  0  0  0  0  0  0  0  0  0  0  0
   16.4387   -1.1855   17.6387 F   0  0  0  0  0  0  0  0  0  0  0  0
   15.4248   -3.1220   17.9901 N   0  0  0  0  0  0  0  0  0  0  0  0
   12.4752   -4.3792   17.0864 H   0  0  0  0  0  0  0  0  0  0  0  0
   12.6638   -3.0378   18.2018 H   0  0  0  0  0  0  0  0  0  0  0  0
   13.5401   -3.1387   15.2965 H   0  0  0  0  0  0  0  0  0  0  0  0
   10.2576   -1.3438   14.9087 H   0  0  0  0  0  0  0  0  0  0  0  0
   11.6250   -1.9220   13.8762 H   0  0  0  0  0  0  0  0  0  0  0  0
   13.0249   -0.6239   14.7859 H   0  0  0  0  0  0  0  0  0  0  0  0
   11.9119   -0.2739   16.2710 H   0  0  0  0  0  0  0  0  0  0  0  0
   11.6171    1.8065   15.4532 H   0  0  0  0  0  0  0  0  0  0  0  0
   12.5687    1.4633   13.9887 H   0  0  0  0  0  0  0  0  0  0  0  0
   14.5718    1.3181   15.1755 H   0  0  0  0  0  0  0  0  0  0  0  0
   13.7163    2.2129   16.4170 H   0  0  0  0  0  0  0  0  0  0  0  0
   14.9411    0.4493   17.4277 H   0  0  0  0  0  0  0  0  0  0  0  0
   13.2893    0.0681   17.7220 H   0  0  0  0  0  0  0  0  0  0  0  0
   15.8496   -0.7038   15.3681 H   0  0  0  0  0  0  0  0  0  0  0  0
  1  2  2  0
  2  3  1  0
  3  4  1  0
  4  5  1  0
  5  6  1  0
  6  7  1  0
  7  8  1  0
  8  9  1  0
  9 10  1  0
 10 11  1  0
 11 12  1  0
 11 13  1  0
 13 14  1  0
 13 15  2  0
 15  2  1  0
 11  4  1  0
  3 16  1  0
  3 17  1  0
  4 18  1  0
  6 19  1  0
  6 20  1  0
  7 21  1  0
  7 22  1  0
  8 23  1  0
  8 24  1  0
  9 25  1  0
  9 26  1  0
 10 27  1  0
 10 28  1  0
 12 29  1  0
M  END
>  <Energy>  (376) 
136.7548909428601

>  <compound_id>  (376) 
1686

>  <target_id>  (376) 
1

>  <reference_id>  (376) 
114

>  <inspiration_ids>  (376) 
[15, 114]

>  <energy_score>  (376) 
58.90377680973904

>  <distance_score>  (376) 
0.8990890378215136

>  <path>  (376) 
/opt/xchem-fragalysis-2/maxwin/BulkDock/SCRATCH/505732/C1686-P114/C1686-P114.minimised.mol

>  <scratch_subdir>  (376) 
/opt/xchem-fragalysis-2/maxwin/BulkDock/SCRATCH/505732/C1686-P114

>  <fragmenstein_runtime>  (376) 
0.7135505676269531

>  <fragmenstein_outcome>  (376) 
too contorted

>  <fragmenstein_mode>  (376) 
expansion

>  <fragmenstein_error>  (376) 


$$$$
C1688-P15
     RDKit          3D

 22 23  0  0  0  0  0  0  0  0999 V2000
   12.1872   -1.2194   14.8503 C   0  0  0  0  0  0  0  0  0  0  0  0
   12.9530   -1.9114   15.9365 C   0  0  0  0  0  0  0  0  0  0  0  0
   13.9930   -1.3903   16.6026 C   0  0  0  0  0  0  0  0  0  0  0  0
   14.6957   -2.1127   17.6673 C   0  0  0  0  0  0  0  0  0  0  0  0
   15.7038   -1.4800   18.3966 C   0  0  0  0  0  0  0  0  0  0  0  0
   16.3808   -2.1539   19.4152 C   0  0  0  0  0  0  0  0  0  0  0  0
   16.0545   -3.4728   19.7131 C   0  0  0  0  0  0  0  0  0  0  0  0
   15.0525   -4.1170   18.9917 C   0  0  0  0  0  0  0  0  0  0  0  0
   14.3690   -3.4415   17.9689 C   0  0  0  0  0  0  0  0  0  0  0  0
   13.2963   -4.1465   17.1975 C   0  0  0  0  0  0  0  0  0  0  0  0
   12.4845   -3.2761   16.2748 C   0  0  0  0  0  0  0  0  0  0  0  0
   11.4421   -3.6771   15.7604 O   0  0  0  0  0  0  0  0  0  0  0  0
   11.1401   -1.0836   15.1408 H   0  0  0  0  0  0  0  0  0  0  0  0
   12.6019   -0.2285   14.6371 H   0  0  0  0  0  0  0  0  0  0  0  0
   12.2239   -1.7991   13.9219 H   0  0  0  0  0  0  0  0  0  0  0  0
   14.3436   -0.3896   16.3666 H   0  0  0  0  0  0  0  0  0  0  0  0
   15.9759   -0.4484   18.1844 H   0  0  0  0  0  0  0  0  0  0  0  0
   17.1600   -1.6463   19.9780 H   0  0  0  0  0  0  0  0  0  0  0  0
   16.5763   -3.9969   20.5096 H   0  0  0  0  0  0  0  0  0  0  0  0
   14.7992   -5.1448   19.2391 H   0  0  0  0  0  0  0  0  0  0  0  0
   12.6035   -4.5911   17.9132 H   0  0  0  0  0  0  0  0  0  0  0  0
   13.7523   -4.9265   16.5832 H   0  0  0  0  0  0  0  0  0  0  0  0
  1  2  1  0
  2  3  2  0
  3  4  1  0
  4  5  2  0
  5  6  1  0
  6  7  2  0
  7  8  1  0
  8  9  2  0
  9 10  1  0
 10 11  1  0
 11 12  2  0
 11  2  1  0
  9  4  1  0
  1 13  1  0
  1 14  1  0
  1 15  1  0
  3 16  1  0
  5 17  1  0
  6 18  1  0
  7 19  1  0
  8 20  1  0
 10 21  1  0
 10 22  1  0
M  END
>  <Energy>  (377) 
33.933206816073024

>  <compound_id>  (377) 
1688

>  <target_id>  (377) 
1

>  <reference_id>  (377) 
15

>  <inspiration_ids>  (377) 
[15, 118]

>  <energy_score>  (377) 
-10.190543829684145

>  <distance_score>  (377) 
1.192610975663306

>  <path>  (377) 
/opt/xchem-fragalysis-2/maxwin/BulkDock/SCRATCH/505732/C1688-P15/C1688-P15.minimised.mol

>  <scratch_subdir>  (377) 
/opt/xchem-fragalysis-2/maxwin/BulkDock/SCRATCH/505732/C1688-P15

>  <fragmenstein_runtime>  (377) 
0.5294289588928223

>  <fragmenstein_outcome>  (377) 
too moved

>  <fragmenstein_mode>  (377) 
expansion

>  <fragmenstein_error>  (377) 


$$$$
C1688-P118
     RDKit          3D

 22 23  0  0  0  0  0  0  0  0999 V2000
   12.2495   -1.2715   14.8401 C   0  0  0  0  0  0  0  0  0  0  0  0
   13.0101   -1.9094   15.9636 C   0  0  0  0  0  0  0  0  0  0  0  0
   14.1052   -1.3996   16.5443 C   0  0  0  0  0  0  0  0  0  0  0  0
   14.8085   -2.0711   17.6415 C   0  0  0  0  0  0  0  0  0  0  0  0
   15.8889   -1.4476   18.2670 C   0  0  0  0  0  0  0  0  0  0  0  0
   16.5666   -2.0718   19.3166 C   0  0  0  0  0  0  0  0  0  0  0  0
   16.1677   -3.3318   19.7504 C   0  0  0  0  0  0  0  0  0  0  0  0
   15.0938   -3.9673   19.1326 C   0  0  0  0  0  0  0  0  0  0  0  0
   14.4108   -3.3413   18.0786 C   0  0  0  0  0  0  0  0  0  0  0  0
   13.2624   -4.0386   17.4202 C   0  0  0  0  0  0  0  0  0  0  0  0
   12.4775   -3.2098   16.4357 C   0  0  0  0  0  0  0  0  0  0  0  0
   11.4088   -3.6007   15.9702 O   0  0  0  0  0  0  0  0  0  0  0  0
   11.2227   -1.0462   15.1471 H   0  0  0  0  0  0  0  0  0  0  0  0
   12.7143   -0.3310   14.5257 H   0  0  0  0  0  0  0  0  0  0  0  0
   12.2199   -1.9329   13.9677 H   0  0  0  0  0  0  0  0  0  0  0  0
   14.5080   -0.4496   16.2045 H   0  0  0  0  0  0  0  0  0  0  0  0
   16.2205   -0.4622   17.9470 H   0  0  0  0  0  0  0  0  0  0  0  0
   17.4039   -1.5720   19.7968 H   0  0  0  0  0  0  0  0  0  0  0  0
   16.6893   -3.8169   20.5714 H   0  0  0  0  0  0  0  0  0  0  0  0
   14.7838   -4.9485   19.4846 H   0  0  0  0  0  0  0  0  0  0  0  0
   12.5769   -4.3856   18.1940 H   0  0  0  0  0  0  0  0  0  0  0  0
   13.6490   -4.8962   16.8723 H   0  0  0  0  0  0  0  0  0  0  0  0
  1  2  1  0
  2  3  2  0
  3  4  1  0
  4  5  2  0
  5  6  1  0
  6  7  2  0
  7  8  1  0
  8  9  2  0
  9 10  1  0
 10 11  1  0
 11 12  2  0
 11  2  1  0
  9  4  1  0
  1 13  1  0
  1 14  1  0
  1 15  1  0
  3 16  1  0
  5 17  1  0
  6 18  1  0
  7 19  1  0
  8 20  1  0
 10 21  1  0
 10 22  1  0
M  END
>  <Energy>  (378) 
33.93944648269693

>  <compound_id>  (378) 
1688

>  <target_id>  (378) 
1

>  <reference_id>  (378) 
118

>  <inspiration_ids>  (378) 
[15, 118]

>  <energy_score>  (378) 
-10.184304163059664

>  <distance_score>  (378) 
1.2448802261850322

>  <path>  (378) 
/opt/xchem-fragalysis-2/maxwin/BulkDock/SCRATCH/505732/C1688-P118/C1688-P118.minimised.mol

>  <scratch_subdir>  (378) 
/opt/xchem-fragalysis-2/maxwin/BulkDock/SCRATCH/505732/C1688-P118

>  <fragmenstein_runtime>  (378) 
0.6044614315032959

>  <fragmenstein_outcome>  (378) 
too moved

>  <fragmenstein_mode>  (378) 
expansion

>  <fragmenstein_error>  (378) 


$$$$
C1698-P16
     RDKit          3D

 42 43  0  0  0  0  0  0  0  0999 V2000
   -9.4297  -24.5116   32.3522 C   0  0  0  0  0  0  0  0  0  0  0  0
   -9.7190  -24.5209   30.9160 N   0  0  0  0  0  0  0  0  0  0  0  0
  -11.1264  -24.2316   30.3875 C   0  0  0  0  0  0  0  0  0  0  0  0
  -11.7714  -25.4207   31.0501 C   0  0  0  0  0  0  0  0  0  0  0  0
  -12.6426  -24.8284   32.1789 C   0  0  0  0  0  0  0  0  0  0  0  0
  -12.2755  -23.5427   32.9076 C   0  0  0  0  0  0  0  0  0  0  0  0
  -12.5282  -23.3302   34.0854 O   0  0  0  0  0  0  0  0  0  0  0  0
  -11.7554  -22.5553   32.1379 N   0  0  0  0  0  0  0  0  0  0  0  0
  -11.8212  -22.7778   30.7544 C   0  0  0  0  0  0  0  0  0  0  0  0
  -13.1707  -22.5540   30.4637 O   0  0  0  0  0  0  0  0  0  0  0  0
  -11.1694  -21.6994   30.1449 O   0  0  0  0  0  0  0  0  0  0  0  0
  -11.4972  -26.6383   30.0061 C   0  0  0  0  0  0  0  0  0  0  0  0
  -12.4794  -27.6507   29.4204 C   0  0  0  0  0  0  0  0  0  0  0  0
  -10.7665  -25.9992   28.7924 C   0  0  0  0  0  0  0  0  0  0  0  0
  -11.2484  -24.5603   28.8432 C   0  0  0  0  0  0  0  0  0  0  0  0
  -10.4669  -23.6346   27.9491 C   0  0  0  0  0  0  0  0  0  0  0  0
  -12.6499  -24.5942   28.2128 C   0  0  0  0  0  0  0  0  0  0  0  0
  -13.6807  -24.3001   28.7959 O   0  0  0  0  0  0  0  0  0  0  0  0
  -12.5988  -25.0549   26.9293 O   0  0  0  0  0  0  0  0  0  0  0  0
  -13.8321  -25.2687   26.2349 C   0  0  0  0  0  0  0  0  0  0  0  0
  -10.0318  -25.1416   33.0095 H   0  0  0  0  0  0  0  0  0  0  0  0
   -8.4294  -24.9346   32.4420 H   0  0  0  0  0  0  0  0  0  0  0  0
   -9.4264  -23.5112   32.7757 H   0  0  0  0  0  0  0  0  0  0  0  0
   -9.3703  -25.4169   30.5871 H   0  0  0  0  0  0  0  0  0  0  0  0
  -11.1448  -25.9352   31.7874 H   0  0  0  0  0  0  0  0  0  0  0  0
  -13.5897  -24.5335   31.7682 H   0  0  0  0  0  0  0  0  0  0  0  0
  -12.6867  -25.4988   33.0252 H   0  0  0  0  0  0  0  0  0  0  0  0
  -11.8905  -21.6462   32.5503 H   0  0  0  0  0  0  0  0  0  0  0  0
  -13.5260  -23.3026   29.9537 H   0  0  0  0  0  0  0  0  0  0  0  0
  -11.0958  -21.0401   30.8477 H   0  0  0  0  0  0  0  0  0  0  0  0
  -10.7457  -27.2759   30.4947 H   0  0  0  0  0  0  0  0  0  0  0  0
  -11.9669  -28.3658   28.7716 H   0  0  0  0  0  0  0  0  0  0  0  0
  -12.9504  -28.2828   30.1724 H   0  0  0  0  0  0  0  0  0  0  0  0
  -13.2045  -27.1965   28.7417 H   0  0  0  0  0  0  0  0  0  0  0  0
  -10.9962  -26.5066   27.8482 H   0  0  0  0  0  0  0  0  0  0  0  0
   -9.6794  -26.0861   28.8751 H   0  0  0  0  0  0  0  0  0  0  0  0
  -10.3934  -24.0395   26.9346 H   0  0  0  0  0  0  0  0  0  0  0  0
   -9.4539  -23.4723   28.3013 H   0  0  0  0  0  0  0  0  0  0  0  0
  -10.9691  -22.6647   27.8690 H   0  0  0  0  0  0  0  0  0  0  0  0
  -14.0371  -24.4053   25.5973 H   0  0  0  0  0  0  0  0  0  0  0  0
  -14.6689  -25.4588   26.9132 H   0  0  0  0  0  0  0  0  0  0  0  0
  -13.7071  -26.1473   25.5960 H   0  0  0  0  0  0  0  0  0  0  0  0
  1  2  1  0
  2  3  1  0
  3  4  1  0
  4  5  1  0
  5  6  1  0
  6  7  2  0
  6  8  1  0
  8  9  1  0
  9 10  1  0
  9 11  1  0
  4 12  1  0
 12 13  1  0
 12 14  1  0
 14 15  1  0
 15 16  1  0
 15 17  1  0
 17 18  2  0
 17 19  1  0
 19 20  1  0
  9  3  1  0
 15  3  1  0
  1 21  1  0
  1 22  1  0
  1 23  1  0
  2 24  1  0
  4 25  1  0
  5 26  1  0
  5 27  1  0
  8 28  1  0
 10 29  1  0
 11 30  1  0
 12 31  1  0
 13 32  1  0
 13 33  1  0
 13 34  1  0
 14 35  1  0
 14 36  1  0
 16 37  1  0
 16 38  1  0
 16 39  1  0
 20 40  1  0
 20 41  1  0
 20 42  1  0
M  END
>  <Energy>  (379) 
36.167462983250459

>  <compound_id>  (379) 
1698

>  <target_id>  (379) 
1

>  <reference_id>  (379) 
16

>  <inspiration_ids>  (379) 
[16, 49]

>  <energy_score>  (379) 
3.6474283273712302

>  <distance_score>  (379) 
2.139655852966892

>  <path>  (379) 
/opt/xchem-fragalysis-2/maxwin/BulkDock/SCRATCH/505732/C1698-P16/C1698-P16.minimised.mol

>  <scratch_subdir>  (379) 
/opt/xchem-fragalysis-2/maxwin/BulkDock/SCRATCH/505732/C1698-P16

>  <fragmenstein_runtime>  (379) 
3.41176700592041

>  <fragmenstein_outcome>  (379) 
too moved

>  <fragmenstein_mode>  (379) 
expansion

>  <fragmenstein_error>  (379) 


$$$$
C1698-P49
     RDKit          3D

 42 43  0  0  0  0  0  0  0  0999 V2000
  -12.5420  -22.9441   32.9094 C   0  0  0  0  0  0  0  0  0  0  0  0
  -12.3027  -23.6375   31.6298 N   0  0  0  0  0  0  0  0  0  0  0  0
  -11.3412  -23.2206   30.5908 C   0  0  0  0  0  0  0  0  0  0  0  0
   -9.9129  -23.5796   31.0466 C   0  0  0  0  0  0  0  0  0  0  0  0
   -9.5334  -22.9215   32.3590 C   0  0  0  0  0  0  0  0  0  0  0  0
  -10.3447  -21.6498   32.5641 C   0  0  0  0  0  0  0  0  0  0  0  0
  -10.6781  -21.2746   33.6823 O   0  0  0  0  0  0  0  0  0  0  0  0
  -10.8523  -20.9610   31.4938 N   0  0  0  0  0  0  0  0  0  0  0  0
  -11.4754  -21.6837   30.4383 C   0  0  0  0  0  0  0  0  0  0  0  0
  -12.8065  -21.2838   30.4981 O   0  0  0  0  0  0  0  0  0  0  0  0
  -10.9931  -21.1708   29.2350 O   0  0  0  0  0  0  0  0  0  0  0  0
   -9.7710  -25.0942   30.8274 C   0  0  0  0  0  0  0  0  0  0  0  0
   -9.9019  -25.9855   32.0445 C   0  0  0  0  0  0  0  0  0  0  0  0
  -10.7914  -25.4371   29.7327 C   0  0  0  0  0  0  0  0  0  0  0  0
  -11.3941  -24.0949   29.2507 C   0  0  0  0  0  0  0  0  0  0  0  0
  -10.5396  -23.5688   28.0611 C   0  0  0  0  0  0  0  0  0  0  0  0
  -12.7847  -24.4069   28.7067 C   0  0  0  0  0  0  0  0  0  0  0  0
  -13.8311  -24.2724   29.3226 O   0  0  0  0  0  0  0  0  0  0  0  0
  -12.7230  -24.9579   27.4580 O   0  0  0  0  0  0  0  0  0  0  0  0
  -13.9929  -25.2830   26.8853 C   0  0  0  0  0  0  0  0  0  0  0  0
  -12.7101  -21.8718   32.8127 H   0  0  0  0  0  0  0  0  0  0  0  0
  -13.4533  -23.1762   33.4356 H   0  0  0  0  0  0  0  0  0  0  0  0
  -11.8001  -23.2297   33.6553 H   0  0  0  0  0  0  0  0  0  0  0  0
  -12.3004  -24.6383   31.8030 H   0  0  0  0  0  0  0  0  0  0  0  0
   -9.2099  -23.1460   30.3300 H   0  0  0  0  0  0  0  0  0  0  0  0
   -9.7020  -23.5616   33.2264 H   0  0  0  0  0  0  0  0  0  0  0  0
   -8.4699  -22.6724   32.3819 H   0  0  0  0  0  0  0  0  0  0  0  0
  -11.4561  -20.2277   31.8342 H   0  0  0  0  0  0  0  0  0  0  0  0
  -13.3226  -22.0790   30.7627 H   0  0  0  0  0  0  0  0  0  0  0  0
  -11.0842  -20.2102   29.3276 H   0  0  0  0  0  0  0  0  0  0  0  0
   -8.7873  -25.2772   30.3956 H   0  0  0  0  0  0  0  0  0  0  0  0
   -8.9193  -26.3711   32.3152 H   0  0  0  0  0  0  0  0  0  0  0  0
  -10.2745  -25.4556   32.9130 H   0  0  0  0  0  0  0  0  0  0  0  0
  -10.5538  -26.8474   31.8788 H   0  0  0  0  0  0  0  0  0  0  0  0
  -10.3105  -25.9903   28.9168 H   0  0  0  0  0  0  0  0  0  0  0  0
  -11.5760  -26.1022   30.1118 H   0  0  0  0  0  0  0  0  0  0  0  0
   -9.5661  -23.1691   28.3518 H   0  0  0  0  0  0  0  0  0  0  0  0
  -11.0749  -22.7954   27.4986 H   0  0  0  0  0  0  0  0  0  0  0  0
  -10.3284  -24.3672   27.3383 H   0  0  0  0  0  0  0  0  0  0  0  0
  -14.5924  -24.3789   26.7461 H   0  0  0  0  0  0  0  0  0  0  0  0
  -14.5215  -26.0091   27.5108 H   0  0  0  0  0  0  0  0  0  0  0  0
  -13.8152  -25.7355   25.9060 H   0  0  0  0  0  0  0  0  0  0  0  0
  1  2  1  0
  2  3  1  0
  3  4  1  0
  4  5  1  0
  5  6  1  0
  6  7  2  0
  6  8  1  0
  8  9  1  0
  9 10  1  0
  9 11  1  0
  4 12  1  0
 12 13  1  0
 12 14  1  0
 14 15  1  0
 15 16  1  0
 15 17  1  0
 17 18  2  0
 17 19  1  0
 19 20  1  0
  9  3  1  0
 15  3  1  0
  1 21  1  0
  1 22  1  0
  1 23  1  0
  2 24  1  0
  4 25  1  0
  5 26  1  0
  5 27  1  0
  8 28  1  0
 10 29  1  0
 11 30  1  0
 12 31  1  0
 13 32  1  0
 13 33  1  0
 13 34  1  0
 14 35  1  0
 14 36  1  0
 16 37  1  0
 16 38  1  0
 16 39  1  0
 20 40  1  0
 20 41  1  0
 20 42  1  0
M  END
>  <Energy>  (380) 
-3.0761626905852992

>  <compound_id>  (380) 
1698

>  <target_id>  (380) 
1

>  <reference_id>  (380) 
49

>  <inspiration_ids>  (380) 
[16, 49]

>  <energy_score>  (380) 
-35.59619734646266

>  <distance_score>  (380) 
2.7015220834695706

>  <path>  (380) 
/opt/xchem-fragalysis-2/maxwin/BulkDock/SCRATCH/505732/C1698-P49/C1698-P49.minimised.mol

>  <scratch_subdir>  (380) 
/opt/xchem-fragalysis-2/maxwin/BulkDock/SCRATCH/505732/C1698-P49

>  <fragmenstein_runtime>  (380) 
3.2300305366516113

>  <fragmenstein_outcome>  (380) 
too moved

>  <fragmenstein_mode>  (380) 
expansion

>  <fragmenstein_error>  (380) 


$$$$
C1700-P16
     RDKit          3D

 42 44  0  0  0  0  0  0  0  0999 V2000
  -11.2459  -26.5744   33.0275 O   0  0  0  0  0  0  0  0  0  0  0  0
  -10.4738  -25.7580   33.4778 C   0  0  0  0  0  0  0  0  0  0  0  0
  -10.6016  -25.3280   34.7199 O   0  0  0  0  0  0  0  0  0  0  0  0
   -9.3482  -25.1591   32.7220 C   0  0  0  0  0  0  0  0  0  0  0  0
   -8.5049  -26.0779   32.2827 C   0  0  0  0  0  0  0  0  0  0  0  0
   -9.0393  -27.0060   31.3643 C   0  0  0  0  0  0  0  0  0  0  0  0
   -9.8372  -26.5423   30.3890 C   0  0  0  0  0  0  0  0  0  0  0  0
   -9.8623  -25.2038   30.3368 C   0  0  0  0  0  0  0  0  0  0  0  0
  -10.0847  -24.6255   29.1005 N   0  0  0  0  0  0  0  0  0  0  0  0
  -10.8497  -23.5046   28.9763 C   0  0  0  0  0  0  0  0  0  0  0  0
  -11.2055  -23.0761   27.8106 N   0  0  0  0  0  0  0  0  0  0  0  0
  -11.8154  -21.9208   27.9371 C   0  0  0  0  0  0  0  0  0  0  0  0
  -12.0351  -21.2218   29.1468 C   0  0  0  0  0  0  0  0  0  0  0  0
  -11.5876  -21.7104   30.3165 C   0  0  0  0  0  0  0  0  0  0  0  0
  -11.3409  -21.1905   31.7175 C   0  0  0  0  0  0  0  0  0  0  0  0
  -12.2567  -21.3663   32.9517 C   0  0  0  0  0  0  0  0  0  0  0  0
  -12.2283  -22.8043   33.2606 N   0  0  0  0  0  0  0  0  0  0  0  0
  -13.1105  -23.3613   32.5020 C   0  0  0  0  0  0  0  0  0  0  0  0
  -12.7718  -24.5961   31.7252 C   0  0  0  0  0  0  0  0  0  0  0  0
  -13.1701  -24.5069   30.2885 C   0  0  0  0  0  0  0  0  0  0  0  0
  -12.7546  -26.0898   28.5654 I   0  0  0  0  0  0  0  0  0  0  0  0
  -13.9463  -23.4991   29.9124 C   0  0  0  0  0  0  0  0  0  0  0  0
  -14.4709  -22.6088   30.9631 C   0  0  0  0  0  0  0  0  0  0  0  0
  -14.2235  -22.6465   32.2134 N   0  0  0  0  0  0  0  0  0  0  0  0
  -11.1654  -22.9184   30.1474 N   0  0  0  0  0  0  0  0  0  0  0  0
   -9.6987  -24.5383   31.5836 C   0  0  0  0  0  0  0  0  0  0  0  0
  -11.5694  -25.3498   34.9343 H   0  0  0  0  0  0  0  0  0  0  0  0
   -7.7039  -26.3562   32.9478 H   0  0  0  0  0  0  0  0  0  0  0  0
   -8.6393  -28.0106   31.3237 H   0  0  0  0  0  0  0  0  0  0  0  0
  -10.1900  -27.1363   29.5864 H   0  0  0  0  0  0  0  0  0  0  0  0
  -10.2120  -25.2275   28.3032 H   0  0  0  0  0  0  0  0  0  0  0  0
  -12.0562  -21.5095   26.9714 H   0  0  0  0  0  0  0  0  0  0  0  0
  -12.5009  -20.2724   29.0662 H   0  0  0  0  0  0  0  0  0  0  0  0
  -10.8673  -20.2329   31.7463 H   0  0  0  0  0  0  0  0  0  0  0  0
  -10.4640  -21.7387   32.0320 H   0  0  0  0  0  0  0  0  0  0  0  0
  -13.2474  -20.9346   32.8459 H   0  0  0  0  0  0  0  0  0  0  0  0
  -11.8876  -20.7961   33.8029 H   0  0  0  0  0  0  0  0  0  0  0  0
  -11.7360  -24.6802   31.7335 H   0  0  0  0  0  0  0  0  0  0  0  0
  -13.0629  -25.3722   32.3668 H   0  0  0  0  0  0  0  0  0  0  0  0
  -14.2232  -23.4487   28.8966 H   0  0  0  0  0  0  0  0  0  0  0  0
  -15.1457  -21.7982   30.6836 H   0  0  0  0  0  0  0  0  0  0  0  0
  -10.0204  -23.5436   31.7849 H   0  0  0  0  0  0  0  0  0  0  0  0
  1  2  2  0
  2  3  1  0
  2  4  1  0
  4  5  2  0
  5  6  1  0
  6  7  2  0
  7  8  1  0
  8  9  1  0
  9 10  1  0
 10 11  2  0
 11 12  1  0
 12 13  2  0
 13 14  1  0
 14 15  1  0
 15 16  1  0
 16 17  1  0
 17 18  2  3
 18 19  1  0
 19 20  1  0
 20 21  1  0
 20 22  2  0
 22 23  1  0
 23 24  2  0
 14 25  2  0
  8 26  2  0
 26  4  1  0
 25 10  1  0
 24 18  1  0
  3 27  1  0
  5 28  1  0
  6 29  1  0
  7 30  1  0
  9 31  1  0
 12 32  1  0
 13 33  1  0
 15 34  1  0
 15 35  1  0
 16 36  1  0
 16 37  1  0
 19 38  1  0
 19 39  1  0
 22 40  1  0
 23 41  1  0
 26 42  1  0
M  END
>  <Energy>  (381) 
204.55015336834941

>  <compound_id>  (381) 
1700

>  <target_id>  (381) 
1

>  <reference_id>  (381) 
16

>  <inspiration_ids>  (381) 
[16, 82]

>  <energy_score>  (381) 
194.00415440805352

>  <distance_score>  (381) 
2.2873194871632503

>  <path>  (381) 
/opt/xchem-fragalysis-2/maxwin/BulkDock/SCRATCH/505732/C1700-P16/C1700-P16.minimised.mol

>  <scratch_subdir>  (381) 
/opt/xchem-fragalysis-2/maxwin/BulkDock/SCRATCH/505732/C1700-P16

>  <fragmenstein_runtime>  (381) 
5.526655197143555

>  <fragmenstein_outcome>  (381) 
too moved

>  <fragmenstein_mode>  (381) 
expansion

>  <fragmenstein_error>  (381) 


$$$$
C1700-P82
     RDKit          3D

 42 44  0  0  0  0  0  0  0  0999 V2000
  -12.4109  -21.7175   32.5497 O   0  0  0  0  0  0  0  0  0  0  0  0
  -12.8810  -22.5828   31.8312 C   0  0  0  0  0  0  0  0  0  0  0  0
  -14.1634  -22.5973   31.4177 O   0  0  0  0  0  0  0  0  0  0  0  0
  -12.0939  -23.7184   31.3277 C   0  0  0  0  0  0  0  0  0  0  0  0
  -11.4167  -24.5180   32.2398 C   0  0  0  0  0  0  0  0  0  0  0  0
  -10.7081  -25.6145   31.7658 C   0  0  0  0  0  0  0  0  0  0  0  0
  -10.7136  -25.9351   30.4024 C   0  0  0  0  0  0  0  0  0  0  0  0
  -11.3531  -25.1120   29.4753 C   0  0  0  0  0  0  0  0  0  0  0  0
  -11.3951  -25.4203   28.1099 N   0  0  0  0  0  0  0  0  0  0  0  0
  -11.9032  -26.5556   27.4673 C   0  0  0  0  0  0  0  0  0  0  0  0
  -11.9307  -26.4760   26.1276 N   0  0  0  0  0  0  0  0  0  0  0  0
  -12.4567  -27.5211   25.4580 C   0  0  0  0  0  0  0  0  0  0  0  0
  -12.9919  -28.6304   26.0659 C   0  0  0  0  0  0  0  0  0  0  0  0
  -12.9433  -28.6413   27.4413 C   0  0  0  0  0  0  0  0  0  0  0  0
  -13.5324  -29.8047   28.2196 C   0  0  0  0  0  0  0  0  0  0  0  0
  -15.0565  -29.7093   28.4412 C   0  0  0  0  0  0  0  0  0  0  0  0
  -15.3479  -29.7819   29.8859 N   0  0  0  0  0  0  0  0  0  0  0  0
  -16.3919  -29.1784   30.3500 C   0  0  0  0  0  0  0  0  0  0  0  0
  -16.7384  -29.3264   31.8291 C   0  0  0  0  0  0  0  0  0  0  0  0
  -17.3190  -28.0510   32.3597 C   0  0  0  0  0  0  0  0  0  0  0  0
  -17.1032  -27.6248   34.3618 I   0  0  0  0  0  0  0  0  0  0  0  0
  -17.9261  -27.1790   31.5473 C   0  0  0  0  0  0  0  0  0  0  0  0
  -17.9373  -27.5298   30.1173 C   0  0  0  0  0  0  0  0  0  0  0  0
  -17.2385  -28.4530   29.5403 N   0  0  0  0  0  0  0  0  0  0  0  0
  -12.3884  -27.6177   28.1420 N   0  0  0  0  0  0  0  0  0  0  0  0
  -12.0100  -23.9745   29.9538 C   0  0  0  0  0  0  0  0  0  0  0  0
  -14.4289  -23.4129   30.9142 H   0  0  0  0  0  0  0  0  0  0  0  0
  -11.4610  -24.3052   33.3049 H   0  0  0  0  0  0  0  0  0  0  0  0
  -10.1822  -26.2526   32.4646 H   0  0  0  0  0  0  0  0  0  0  0  0
  -10.1892  -26.8287   30.0742 H   0  0  0  0  0  0  0  0  0  0  0  0
  -11.5245  -24.6379   27.4833 H   0  0  0  0  0  0  0  0  0  0  0  0
  -12.4407  -27.4351   24.3748 H   0  0  0  0  0  0  0  0  0  0  0  0
  -13.4161  -29.4416   25.4893 H   0  0  0  0  0  0  0  0  0  0  0  0
  -13.0175  -29.8763   29.1836 H   0  0  0  0  0  0  0  0  0  0  0  0
  -13.2980  -30.7344   27.6856 H   0  0  0  0  0  0  0  0  0  0  0  0
  -15.4618  -28.8113   27.9627 H   0  0  0  0  0  0  0  0  0  0  0  0
  -15.5335  -30.5724   27.9615 H   0  0  0  0  0  0  0  0  0  0  0  0
  -17.4736  -30.1346   31.9228 H   0  0  0  0  0  0  0  0  0  0  0  0
  -15.8463  -29.6357   32.3797 H   0  0  0  0  0  0  0  0  0  0  0  0
  -18.3411  -26.2291   31.8563 H   0  0  0  0  0  0  0  0  0  0  0  0
  -18.6130  -26.9177   29.4968 H   0  0  0  0  0  0  0  0  0  0  0  0
  -12.4856  -23.2935   29.2565 H   0  0  0  0  0  0  0  0  0  0  0  0
  1  2  2  0
  2  3  1  0
  2  4  1  0
  4  5  2  0
  5  6  1  0
  6  7  2  0
  7  8  1  0
  8  9  1  0
  9 10  1  0
 10 11  2  0
 11 12  1  0
 12 13  2  0
 13 14  1  0
 14 15  1  0
 15 16  1  0
 16 17  1  0
 17 18  2  3
 18 19  1  0
 19 20  1  0
 20 21  1  0
 20 22  2  0
 22 23  1  0
 23 24  2  0
 14 25  2  0
  8 26  2  0
 26  4  1  0
 25 10  1  0
 24 18  1  0
  3 27  1  0
  5 28  1  0
  6 29  1  0
  7 30  1  0
  9 31  1  0
 12 32  1  0
 13 33  1  0
 15 34  1  0
 15 35  1  0
 16 36  1  0
 16 37  1  0
 19 38  1  0
 19 39  1  0
 22 40  1  0
 23 41  1  0
 26 42  1  0
M  END
>  <Energy>  (382) 
-17.398603357240706

>  <compound_id>  (382) 
1700

>  <target_id>  (382) 
1

>  <reference_id>  (382) 
82

>  <inspiration_ids>  (382) 
[16, 82]

>  <energy_score>  (382) 
-27.944602317535583

>  <distance_score>  (382) 
4.973619220336146

>  <path>  (382) 
/opt/xchem-fragalysis-2/maxwin/BulkDock/SCRATCH/505732/C1700-P82/C1700-P82.minimised.mol

>  <scratch_subdir>  (382) 
/opt/xchem-fragalysis-2/maxwin/BulkDock/SCRATCH/505732/C1700-P82

>  <fragmenstein_runtime>  (382) 
6.9734039306640625

>  <fragmenstein_outcome>  (382) 
too moved

>  <fragmenstein_mode>  (382) 
expansion

>  <fragmenstein_error>  (382) 


$$$$
C1702-P16
     RDKit          3D

 36 38  0  0  0  0  0  0  0  0999 V2000
  -14.1234  -24.0306   29.1291 F   0  0  0  0  0  0  0  0  0  0  0  0
  -13.4159  -23.1072   29.8162 C   0  0  0  0  0  0  0  0  0  0  0  0
  -14.2770  -22.2864   30.4695 F   0  0  0  0  0  0  0  0  0  0  0  0
  -12.7642  -22.3637   28.8753 F   0  0  0  0  0  0  0  0  0  0  0  0
  -12.4457  -23.6112   30.7957 C   0  0  0  0  0  0  0  0  0  0  0  0
  -12.5638  -24.8157   31.2451 N   0  0  0  0  0  0  0  0  0  0  0  0
  -11.6965  -25.2859   32.1737 C   0  0  0  0  0  0  0  0  0  0  0  0
  -11.1728  -26.5149   32.0908 C   0  0  0  0  0  0  0  0  0  0  0  0
  -10.7742  -27.1293   30.7908 C   0  0  0  0  0  0  0  0  0  0  0  0
  -10.4131  -26.2075   29.7135 N   0  0  0  0  0  0  0  0  0  0  0  0
  -11.5723  -25.7925   28.9160 C   0  0  0  0  0  0  0  0  0  0  0  0
  -11.8680  -26.4987   27.6602 C   0  0  0  0  0  0  0  0  0  0  0  0
  -11.6752  -25.9898   26.3597 C   0  0  0  0  0  0  0  0  0  0  0  0
  -12.3291  -26.6944   25.4392 N   0  0  0  0  0  0  0  0  0  0  0  0
  -13.0913  -27.5233   26.1827 N   0  0  0  0  0  0  0  0  0  0  0  0
  -12.7240  -27.5648   27.4908 C   0  0  0  0  0  0  0  0  0  0  0  0
   -9.6824  -25.0444   30.2783 C   0  0  0  0  0  0  0  0  0  0  0  0
   -9.4408  -24.7533   31.8501 C   0  0  0  0  0  0  0  0  0  0  0  0
  -10.7032  -24.3531   32.7049 C   0  0  0  0  0  0  0  0  0  0  0  0
  -11.2115  -22.9326   32.4951 C   0  0  0  0  0  0  0  0  0  0  0  0
  -12.9058  -22.2516   33.6690 I   0  0  0  0  0  0  0  0  0  0  0  0
  -11.4682  -22.5609   31.2394 C   0  0  0  0  0  0  0  0  0  0  0  0
  -10.6116  -26.8563   32.9435 H   0  0  0  0  0  0  0  0  0  0  0  0
  -11.5261  -27.8532   30.4683 H   0  0  0  0  0  0  0  0  0  0  0  0
   -9.8562  -27.6656   31.0315 H   0  0  0  0  0  0  0  0  0  0  0  0
  -12.4977  -25.9265   29.4619 H   0  0  0  0  0  0  0  0  0  0  0  0
  -11.5080  -24.7391   28.6210 H   0  0  0  0  0  0  0  0  0  0  0  0
  -11.1431  -25.0966   26.0594 H   0  0  0  0  0  0  0  0  0  0  0  0
  -13.7677  -28.1103   25.6958 H   0  0  0  0  0  0  0  0  0  0  0  0
  -13.2144  -28.2262   28.1899 H   0  0  0  0  0  0  0  0  0  0  0  0
  -10.1499  -24.1799   29.8361 H   0  0  0  0  0  0  0  0  0  0  0  0
   -8.7225  -25.0703   29.7877 H   0  0  0  0  0  0  0  0  0  0  0  0
   -8.7319  -23.9797   32.0620 H   0  0  0  0  0  0  0  0  0  0  0  0
   -8.9205  -25.6227   32.2726 H   0  0  0  0  0  0  0  0  0  0  0  0
  -10.5306  -24.5923   33.7471 H   0  0  0  0  0  0  0  0  0  0  0  0
  -11.7945  -21.5565   30.9851 H   0  0  0  0  0  0  0  0  0  0  0  0
  1  2  1  0
  2  3  1  0
  2  4  1  0
  2  5  1  0
  5  6  2  0
  6  7  1  0
  7  8  2  0
  8  9  1  0
  9 10  1  0
 10 11  1  0
 11 12  1  0
 12 13  1  0
 13 14  2  0
 14 15  1  0
 15 16  1  0
 10 17  1  0
 17 18  1  0
 18 19  1  0
 19 20  1  0
 20 21  1  0
 20 22  2  0
 22  5  1  0
 19  7  1  0
 16 12  2  0
  8 23  1  0
  9 24  1  0
  9 25  1  0
 11 26  1  0
 11 27  1  0
 13 28  1  0
 15 29  1  0
 16 30  1  0
 17 31  1  0
 17 32  1  0
 18 33  1  0
 18 34  1  0
 19 35  1  0
 22 36  1  0
M  END
>  <Energy>  (383) 
225.93794281092761

>  <compound_id>  (383) 
1702

>  <target_id>  (383) 
1

>  <reference_id>  (383) 
16

>  <inspiration_ids>  (383) 
[16, 115]

>  <energy_score>  (383) 
85.91636726363583

>  <distance_score>  (383) 
2.546605079689597

>  <path>  (383) 
/opt/xchem-fragalysis-2/maxwin/BulkDock/SCRATCH/505732/C1702-P16/C1702-P16.minimised.mol

>  <scratch_subdir>  (383) 
/opt/xchem-fragalysis-2/maxwin/BulkDock/SCRATCH/505732/C1702-P16

>  <fragmenstein_runtime>  (383) 
3.4362752437591553

>  <fragmenstein_outcome>  (383) 
too moved

>  <fragmenstein_mode>  (383) 
expansion

>  <fragmenstein_error>  (383) 


$$$$
C1702-P115
     RDKit          3D

 36 38  0  0  0  0  0  0  0  0999 V2000
  -11.8493  -23.2449   30.6021 F   0  0  0  0  0  0  0  0  0  0  0  0
  -12.4286  -22.0582   30.9054 C   0  0  0  0  0  0  0  0  0  0  0  0
  -13.7458  -22.1836   30.5985 F   0  0  0  0  0  0  0  0  0  0  0  0
  -11.8822  -21.1575   30.0531 F   0  0  0  0  0  0  0  0  0  0  0  0
  -12.3270  -21.6827   32.3841 C   0  0  0  0  0  0  0  0  0  0  0  0
  -12.7572  -22.5307   33.2694 N   0  0  0  0  0  0  0  0  0  0  0  0
  -11.6606  -23.2855   33.6546 C   0  0  0  0  0  0  0  0  0  0  0  0
  -11.8174  -24.5374   34.0726 C   0  0  0  0  0  0  0  0  0  0  0  0
  -11.1122  -25.6451   33.3627 C   0  0  0  0  0  0  0  0  0  0  0  0
  -10.1992  -25.3097   32.2861 N   0  0  0  0  0  0  0  0  0  0  0  0
   -9.9214  -26.4562   31.4177 C   0  0  0  0  0  0  0  0  0  0  0  0
  -10.5046  -26.2337   30.0594 C   0  0  0  0  0  0  0  0  0  0  0  0
   -9.9482  -25.4526   29.0240 C   0  0  0  0  0  0  0  0  0  0  0  0
  -10.6254  -25.5079   27.8782 N   0  0  0  0  0  0  0  0  0  0  0  0
  -11.6691  -26.2858   28.1811 N   0  0  0  0  0  0  0  0  0  0  0  0
  -11.6219  -26.7772   29.4560 C   0  0  0  0  0  0  0  0  0  0  0  0
   -8.9966  -24.8367   32.9269 C   0  0  0  0  0  0  0  0  0  0  0  0
   -9.1934  -23.5443   33.7703 C   0  0  0  0  0  0  0  0  0  0  0  0
  -10.3175  -22.7415   33.2459 C   0  0  0  0  0  0  0  0  0  0  0  0
  -10.3498  -21.2680   33.5114 C   0  0  0  0  0  0  0  0  0  0  0  0
   -9.3869  -20.2608   34.9705 I   0  0  0  0  0  0  0  0  0  0  0  0
  -11.3844  -20.6705   32.9179 C   0  0  0  0  0  0  0  0  0  0  0  0
  -12.7539  -24.8223   34.5354 H   0  0  0  0  0  0  0  0  0  0  0  0
  -11.9260  -26.1095   32.8381 H   0  0  0  0  0  0  0  0  0  0  0  0
  -10.6506  -26.3342   34.0780 H   0  0  0  0  0  0  0  0  0  0  0  0
   -8.8478  -26.5734   31.3212 H   0  0  0  0  0  0  0  0  0  0  0  0
  -10.2233  -27.4172   31.8350 H   0  0  0  0  0  0  0  0  0  0  0  0
   -9.0493  -24.8672   29.0584 H   0  0  0  0  0  0  0  0  0  0  0  0
  -12.3488  -26.4728   27.4512 H   0  0  0  0  0  0  0  0  0  0  0  0
  -12.3579  -27.4834   29.7969 H   0  0  0  0  0  0  0  0  0  0  0  0
   -8.2672  -24.6185   32.1531 H   0  0  0  0  0  0  0  0  0  0  0  0
   -8.5704  -25.6392   33.5472 H   0  0  0  0  0  0  0  0  0  0  0  0
   -8.3337  -22.8798   33.6637 H   0  0  0  0  0  0  0  0  0  0  0  0
   -9.3124  -23.7845   34.8328 H   0  0  0  0  0  0  0  0  0  0  0  0
  -10.2446  -22.8263   32.1580 H   0  0  0  0  0  0  0  0  0  0  0  0
  -11.6972  -19.7024   33.2627 H   0  0  0  0  0  0  0  0  0  0  0  0
  1  2  1  0
  2  3  1  0
  2  4  1  0
  2  5  1  0
  5  6  2  0
  6  7  1  0
  7  8  2  0
  8  9  1  0
  9 10  1  0
 10 11  1  0
 11 12  1  0
 12 13  1  0
 13 14  2  0
 14 15  1  0
 15 16  1  0
 10 17  1  0
 17 18  1  0
 18 19  1  0
 19 20  1  0
 20 21  1  0
 20 22  2  0
 22  5  1  0
 19  7  1  0
 16 12  2  0
  8 23  1  0
  9 24  1  0
  9 25  1  0
 11 26  1  0
 11 27  1  0
 13 28  1  0
 15 29  1  0
 16 30  1  0
 17 31  1  0
 17 32  1  0
 18 33  1  0
 18 34  1  0
 19 35  1  0
 22 36  1  0
M  END
>  <Energy>  (384) 
179.96408431558385

>  <compound_id>  (384) 
1702

>  <target_id>  (384) 
1

>  <reference_id>  (384) 
115

>  <inspiration_ids>  (384) 
[16, 115]

>  <energy_score>  (384) 
39.94250876829477

>  <distance_score>  (384) 
3.073086940937137

>  <path>  (384) 
/opt/xchem-fragalysis-2/maxwin/BulkDock/SCRATCH/505732/C1702-P115/C1702-P115.minimised.mol

>  <scratch_subdir>  (384) 
/opt/xchem-fragalysis-2/maxwin/BulkDock/SCRATCH/505732/C1702-P115

>  <fragmenstein_runtime>  (384) 
2.3234047889709473

>  <fragmenstein_outcome>  (384) 
too moved

>  <fragmenstein_mode>  (384) 
expansion

>  <fragmenstein_error>  (384) 


$$$$
C1703-P16
     RDKit          3D

 37 40  0  0  0  0  0  0  0  0999 V2000
  -11.1788  -21.4290   31.7994 O   0  0  0  0  0  0  0  0  0  0  0  0
  -12.0372  -22.2884   31.6593 C   0  0  0  0  0  0  0  0  0  0  0  0
  -13.3821  -21.9888   31.8324 N   0  0  0  0  0  0  0  0  0  0  0  0
  -13.9827  -22.7222   32.7297 C   0  0  0  0  0  0  0  0  0  0  0  0
  -15.3649  -22.3409   33.2666 C   0  0  0  0  0  0  0  0  0  0  0  0
  -15.2913  -21.1782   33.9824 F   0  0  0  0  0  0  0  0  0  0  0  0
  -16.2775  -22.1015   32.2844 F   0  0  0  0  0  0  0  0  0  0  0  0
  -15.9015  -23.2571   34.1151 F   0  0  0  0  0  0  0  0  0  0  0  0
  -13.2899  -23.8750   33.3476 C   0  0  0  0  0  0  0  0  0  0  0  0
  -12.2170  -24.3589   32.6952 C   0  0  0  0  0  0  0  0  0  0  0  0
  -10.9067  -25.5488   33.8024 I   0  0  0  0  0  0  0  0  0  0  0  0
  -11.6904  -23.7745   31.3935 C   0  0  0  0  0  0  0  0  0  0  0  0
  -12.3028  -24.0379   29.9810 C   0  0  0  0  0  0  0  0  0  0  0  0
  -11.6252  -25.0932   29.1739 N   0  0  0  0  0  0  0  0  0  0  0  0
  -12.2902  -26.1663   28.6286 C   0  0  0  0  0  0  0  0  0  0  0  0
  -12.2604  -27.4127   29.1391 C   0  0  0  0  0  0  0  0  0  0  0  0
  -13.0679  -28.4628   28.5427 C   0  0  0  0  0  0  0  0  0  0  0  0
  -13.8456  -28.2165   27.4734 C   0  0  0  0  0  0  0  0  0  0  0  0
  -13.8152  -26.9317   26.8737 C   0  0  0  0  0  0  0  0  0  0  0  0
  -14.3804  -26.4325   25.8000 N   0  0  0  0  0  0  0  0  0  0  0  0
  -13.9342  -25.1394   25.6520 N   0  0  0  0  0  0  0  0  0  0  0  0
  -13.1165  -24.8793   26.6441 C   0  0  0  0  0  0  0  0  0  0  0  0
  -13.0279  -25.9649   27.4629 N   0  0  0  0  0  0  0  0  0  0  0  0
  -10.1721  -25.1009   29.2636 C   0  0  0  0  0  0  0  0  0  0  0  0
   -9.8199  -25.1545   30.7262 C   0  0  0  0  0  0  0  0  0  0  0  0
  -10.2810  -23.9796   31.3964 O   0  0  0  0  0  0  0  0  0  0  0  0
  -13.6298  -24.2106   34.3160 H   0  0  0  0  0  0  0  0  0  0  0  0
  -12.2112  -23.1237   29.3769 H   0  0  0  0  0  0  0  0  0  0  0  0
  -13.3759  -24.2218   30.0532 H   0  0  0  0  0  0  0  0  0  0  0  0
  -11.6977  -27.6394   30.0376 H   0  0  0  0  0  0  0  0  0  0  0  0
  -13.0567  -29.4468   29.0040 H   0  0  0  0  0  0  0  0  0  0  0  0
  -14.4745  -28.9833   27.0320 H   0  0  0  0  0  0  0  0  0  0  0  0
  -12.5802  -23.9554   26.8067 H   0  0  0  0  0  0  0  0  0  0  0  0
   -9.8032  -24.1957   28.7780 H   0  0  0  0  0  0  0  0  0  0  0  0
   -9.7406  -25.9588   28.7374 H   0  0  0  0  0  0  0  0  0  0  0  0
  -10.2287  -26.0714   31.1552 H   0  0  0  0  0  0  0  0  0  0  0  0
   -8.7495  -25.1790   30.8864 H   0  0  0  0  0  0  0  0  0  0  0  0
  1  2  2  0
  2  3  1  0
  3  4  2  0
  4  5  1  0
  5  6  1  0
  5  7  1  0
  5  8  1  0
  4  9  1  0
  9 10  2  0
 10 11  1  0
 10 12  1  0
 12 13  1  0
 13 14  1  0
 14 15  1  0
 15 16  2  0
 16 17  1  0
 17 18  2  0
 18 19  1  0
 19 20  2  0
 20 21  1  0
 21 22  2  0
 22 23  1  0
 14 24  1  0
 24 25  1  0
 25 26  1  0
 12  2  1  0
 23 15  1  0
 26 12  1  0
 23 19  1  0
  9 27  1  0
 13 28  1  0
 13 29  1  0
 16 30  1  0
 17 31  1  0
 18 32  1  0
 22 33  1  0
 24 34  1  0
 24 35  1  0
 25 36  1  0
 25 37  1  0
M  END
>  <Energy>  (385) 
263.32391373870706

>  <compound_id>  (385) 
1703

>  <target_id>  (385) 
1

>  <reference_id>  (385) 
16

>  <inspiration_ids>  (385) 
[16, 123]

>  <energy_score>  (385) 
-30.45810971252888

>  <distance_score>  (385) 
5.426432123942822

>  <path>  (385) 
/opt/xchem-fragalysis-2/maxwin/BulkDock/SCRATCH/505732/C1703-P16/C1703-P16.minimised.mol

>  <scratch_subdir>  (385) 
/opt/xchem-fragalysis-2/maxwin/BulkDock/SCRATCH/505732/C1703-P16

>  <fragmenstein_runtime>  (385) 
4.544936656951904

>  <fragmenstein_outcome>  (385) 
too moved

>  <fragmenstein_mode>  (385) 
expansion

>  <fragmenstein_error>  (385) 


$$$$
C1703-P123
     RDKit          3D

 37 40  0  0  0  0  0  0  0  0999 V2000
  -10.7185  -23.5692   31.2746 O   0  0  0  0  0  0  0  0  0  0  0  0
  -11.4032  -24.5837   31.1630 C   0  0  0  0  0  0  0  0  0  0  0  0
  -11.7411  -25.1147   32.3383 N   0  0  0  0  0  0  0  0  0  0  0  0
  -10.5638  -25.4630   32.7665 C   0  0  0  0  0  0  0  0  0  0  0  0
  -10.4048  -25.6236   34.2045 C   0  0  0  0  0  0  0  0  0  0  0  0
   -9.1389  -25.3888   34.6313 F   0  0  0  0  0  0  0  0  0  0  0  0
  -11.2316  -24.7851   34.8545 F   0  0  0  0  0  0  0  0  0  0  0  0
  -10.7433  -26.8286   34.7033 F   0  0  0  0  0  0  0  0  0  0  0  0
   -9.4513  -25.7490   31.7262 C   0  0  0  0  0  0  0  0  0  0  0  0
  -10.0629  -26.2241   30.5833 C   0  0  0  0  0  0  0  0  0  0  0  0
  -11.2273  -28.0216   31.4671 I   0  0  0  0  0  0  0  0  0  0  0  0
  -11.2823  -25.4741   29.9285 C   0  0  0  0  0  0  0  0  0  0  0  0
  -11.2182  -24.3425   28.9295 C   0  0  0  0  0  0  0  0  0  0  0  0
  -12.6252  -23.8021   29.0918 N   0  0  0  0  0  0  0  0  0  0  0  0
  -12.8706  -22.6258   29.9023 C   0  0  0  0  0  0  0  0  0  0  0  0
  -12.1815  -21.6593   29.2756 C   0  0  0  0  0  0  0  0  0  0  0  0
  -11.1231  -21.1140   30.0422 C   0  0  0  0  0  0  0  0  0  0  0  0
  -11.0458  -21.0648   31.3732 C   0  0  0  0  0  0  0  0  0  0  0  0
  -12.1497  -21.4858   32.0875 C   0  0  0  0  0  0  0  0  0  0  0  0
  -12.5292  -21.1949   33.3072 N   0  0  0  0  0  0  0  0  0  0  0  0
  -13.4458  -22.1119   33.6268 N   0  0  0  0  0  0  0  0  0  0  0  0
  -13.4894  -22.9267   32.5968 C   0  0  0  0  0  0  0  0  0  0  0  0
  -12.9765  -22.4013   31.4292 N   0  0  0  0  0  0  0  0  0  0  0  0
  -13.4724  -24.5598   28.2057 C   0  0  0  0  0  0  0  0  0  0  0  0
  -12.9709  -26.0345   28.2116 C   0  0  0  0  0  0  0  0  0  0  0  0
  -12.2808  -26.3952   29.4256 O   0  0  0  0  0  0  0  0  0  0  0  0
   -8.5017  -26.0751   32.1122 H   0  0  0  0  0  0  0  0  0  0  0  0
  -10.4543  -23.5900   29.0407 H   0  0  0  0  0  0  0  0  0  0  0  0
  -11.0287  -24.6843   27.9034 H   0  0  0  0  0  0  0  0  0  0  0  0
  -11.9589  -21.7213   28.2119 H   0  0  0  0  0  0  0  0  0  0  0  0
  -10.3252  -20.8256   29.4202 H   0  0  0  0  0  0  0  0  0  0  0  0
  -10.2244  -20.6612   31.9352 H   0  0  0  0  0  0  0  0  0  0  0  0
  -13.7805  -23.9257   32.7419 H   0  0  0  0  0  0  0  0  0  0  0  0
  -14.5028  -24.4687   28.5037 H   0  0  0  0  0  0  0  0  0  0  0  0
  -13.3853  -24.1872   27.1806 H   0  0  0  0  0  0  0  0  0  0  0  0
  -13.8003  -26.7303   28.0489 H   0  0  0  0  0  0  0  0  0  0  0  0
  -12.2927  -26.2204   27.3687 H   0  0  0  0  0  0  0  0  0  0  0  0
  1  2  2  0
  2  3  1  0
  3  4  2  0
  4  5  1  0
  5  6  1  0
  5  7  1  0
  5  8  1  0
  4  9  1  0
  9 10  2  0
 10 11  1  0
 10 12  1  0
 12 13  1  0
 13 14  1  0
 14 15  1  0
 15 16  2  0
 16 17  1  0
 17 18  2  0
 18 19  1  0
 19 20  2  0
 20 21  1  0
 21 22  2  0
 22 23  1  0
 14 24  1  0
 24 25  1  0
 25 26  1  0
 12  2  1  0
 23 15  1  0
 26 12  1  0
 23 19  1  0
  9 27  1  0
 13 28  1  0
 13 29  1  0
 16 30  1  0
 17 31  1  0
 18 32  1  0
 22 33  1  0
 24 34  1  0
 24 35  1  0
 25 36  1  0
 25 37  1  0
M  END
>  <Energy>  (386) 
505.57197806490086

>  <compound_id>  (386) 
1703

>  <target_id>  (386) 
1

>  <reference_id>  (386) 
123

>  <inspiration_ids>  (386) 
[16, 123]

>  <energy_score>  (386) 
211.78995461367026

>  <distance_score>  (386) 
3.270040672157019

>  <path>  (386) 
/opt/xchem-fragalysis-2/maxwin/BulkDock/SCRATCH/505732/C1703-P123/C1703-P123.minimised.mol

>  <scratch_subdir>  (386) 
/opt/xchem-fragalysis-2/maxwin/BulkDock/SCRATCH/505732/C1703-P123

>  <fragmenstein_runtime>  (386) 
4.502643585205078

>  <fragmenstein_outcome>  (386) 
too moved

>  <fragmenstein_mode>  (386) 
expansion

>  <fragmenstein_error>  (386) 


$$$$
C1705-P17
     RDKit          3D

 32 34  0  0  0  0  0  0  0  0999 V2000
   -2.8221    0.2940    8.3897 F   0  0  0  0  0  0  0  0  0  0  0  0
   -4.0268   -0.2862    8.2011 C   0  0  0  0  0  0  0  0  0  0  0  0
   -3.7619   -1.9389    7.5860 Cl  0  0  0  0  0  0  0  0  0  0  0  0
   -4.8870    0.4801    7.2307 C   0  0  0  0  0  0  0  0  0  0  0  0
   -4.5411    0.5344    5.8834 C   0  0  0  0  0  0  0  0  0  0  0  0
   -5.4532    0.9435    4.9391 C   0  0  0  0  0  0  0  0  0  0  0  0
   -4.8353    0.8954    2.9135 I   0  0  0  0  0  0  0  0  0  0  0  0
   -6.7640    0.9628    5.3726 C   0  0  0  0  0  0  0  0  0  0  0  0
   -7.7388    0.4868    4.5258 C   0  0  0  0  0  0  0  0  0  0  0  0
   -8.6525   -0.2918    5.1828 C   0  0  0  0  0  0  0  0  0  0  0  0
   -8.7143   -1.6518    4.7888 N   0  0  0  0  0  0  0  0  0  0  0  0
   -7.4373   -2.3982    5.0498 C   0  0  0  0  0  0  0  0  0  0  0  0
   -7.2564   -2.7194    6.5501 C   0  0  0  0  0  0  0  0  0  0  0  0
   -8.3621   -3.4638    7.0617 O   0  0  0  0  0  0  0  0  0  0  0  0
   -9.5739   -2.7264    6.8884 C   0  0  0  0  0  0  0  0  0  0  0  0
   -9.8367   -2.3603    5.4220 C   0  0  0  0  0  0  0  0  0  0  0  0
   -9.1295    0.0798    6.3859 N   0  0  0  0  0  0  0  0  0  0  0  0
   -8.3074    0.7945    7.1699 C   0  0  0  0  0  0  0  0  0  0  0  0
   -7.0271    1.0259    6.7661 C   0  0  0  0  0  0  0  0  0  0  0  0
   -6.0728    0.9316    7.6832 N   0  0  0  0  0  0  0  0  0  0  0  0
   -4.5284   -0.3709    9.1665 H   0  0  0  0  0  0  0  0  0  0  0  0
   -3.6138    0.0980    5.5464 H   0  0  0  0  0  0  0  0  0  0  0  0
   -7.5516    0.2473    3.4852 H   0  0  0  0  0  0  0  0  0  0  0  0
   -7.5074   -3.3445    4.4985 H   0  0  0  0  0  0  0  0  0  0  0  0
   -6.5602   -1.8801    4.6513 H   0  0  0  0  0  0  0  0  0  0  0  0
   -6.3668   -3.3449    6.6723 H   0  0  0  0  0  0  0  0  0  0  0  0
   -7.1112   -1.8275    7.1622 H   0  0  0  0  0  0  0  0  0  0  0  0
   -9.5737   -1.8796    7.5774 H   0  0  0  0  0  0  0  0  0  0  0  0
  -10.3968   -3.3645    7.1986 H   0  0  0  0  0  0  0  0  0  0  0  0
  -10.7702   -1.7916    5.3264 H   0  0  0  0  0  0  0  0  0  0  0  0
   -9.9870   -3.2902    4.8580 H   0  0  0  0  0  0  0  0  0  0  0  0
   -8.6245    0.9171    8.1993 H   0  0  0  0  0  0  0  0  0  0  0  0
  1  2  1  0
  2  3  1  0
  2  4  1  0
  4  5  2  0
  5  6  1  0
  6  7  1  0
  6  8  2  0
  8  9  1  0
  9 10  2  0
 10 11  1  0
 11 12  1  0
 12 13  1  0
 13 14  1  0
 14 15  1  0
 15 16  1  0
 10 17  1  0
 17 18  2  0
 18 19  1  0
 19 20  2  0
 20  4  1  0
 19  8  1  0
 16 11  1  0
  2 21  1  0
  5 22  1  0
  9 23  1  0
 12 24  1  0
 12 25  1  0
 13 26  1  0
 13 27  1  0
 15 28  1  0
 15 29  1  0
 16 30  1  0
 16 31  1  0
 18 32  1  0
M  END
>  <Energy>  (387) 
162.71959680764266

>  <compound_id>  (387) 
1705

>  <target_id>  (387) 
1

>  <reference_id>  (387) 
17

>  <inspiration_ids>  (387) 
[17, 24]

>  <energy_score>  (387) 
29.03662665805024

>  <distance_score>  (387) 
2.3013437043677567

>  <path>  (387) 
/opt/xchem-fragalysis-2/maxwin/BulkDock/SCRATCH/505732/C1705-P17/C1705-P17.minimised.mol

>  <scratch_subdir>  (387) 
/opt/xchem-fragalysis-2/maxwin/BulkDock/SCRATCH/505732/C1705-P17

>  <fragmenstein_runtime>  (387) 
17.08433222770691

>  <fragmenstein_outcome>  (387) 
too moved

>  <fragmenstein_mode>  (387) 
expansion

>  <fragmenstein_error>  (387) 


$$$$
C1705-P24
     RDKit          3D

 32 34  0  0  0  0  0  0  0  0999 V2000
   -2.8723    0.9334    8.3242 F   0  0  0  0  0  0  0  0  0  0  0  0
   -4.0901    0.3783    8.3097 C   0  0  0  0  0  0  0  0  0  0  0  0
   -3.9308   -1.1516    7.3960 Cl  0  0  0  0  0  0  0  0  0  0  0  0
   -5.0515    1.3099    7.6258 C   0  0  0  0  0  0  0  0  0  0  0  0
   -4.6380    1.9635    6.4716 C   0  0  0  0  0  0  0  0  0  0  0  0
   -5.5135    1.9372    5.4088 C   0  0  0  0  0  0  0  0  0  0  0  0
   -4.8390    2.6287    3.5587 I   0  0  0  0  0  0  0  0  0  0  0  0
   -6.7138    1.2456    5.5966 C   0  0  0  0  0  0  0  0  0  0  0  0
   -7.2974    0.4594    4.6086 C   0  0  0  0  0  0  0  0  0  0  0  0
   -8.1905   -0.4938    5.0554 C   0  0  0  0  0  0  0  0  0  0  0  0
   -8.0658   -1.8102    4.5571 N   0  0  0  0  0  0  0  0  0  0  0  0
   -9.1932   -2.6759    4.9651 C   0  0  0  0  0  0  0  0  0  0  0  0
   -9.1599   -3.1087    6.4505 C   0  0  0  0  0  0  0  0  0  0  0  0
   -7.9054   -3.6867    6.8190 O   0  0  0  0  0  0  0  0  0  0  0  0
   -6.8269   -2.8024    6.5098 C   0  0  0  0  0  0  0  0  0  0  0  0
   -6.7935   -2.4363    5.0155 C   0  0  0  0  0  0  0  0  0  0  0  0
   -8.9114   -0.2983    6.1749 N   0  0  0  0  0  0  0  0  0  0  0  0
   -8.3746    0.4823    7.1206 C   0  0  0  0  0  0  0  0  0  0  0  0
   -7.1644    1.0704    6.9198 C   0  0  0  0  0  0  0  0  0  0  0  0
   -6.3458    1.1602    7.9508 N   0  0  0  0  0  0  0  0  0  0  0  0
   -4.3958    0.1360    9.3277 H   0  0  0  0  0  0  0  0  0  0  0  0
   -3.6065    2.2680    6.3424 H   0  0  0  0  0  0  0  0  0  0  0  0
   -6.8432    0.3335    3.6322 H   0  0  0  0  0  0  0  0  0  0  0  0
  -10.1556   -2.2052    4.7269 H   0  0  0  0  0  0  0  0  0  0  0  0
   -9.1399   -3.5803    4.3458 H   0  0  0  0  0  0  0  0  0  0  0  0
   -9.4117   -2.3218    7.1634 H   0  0  0  0  0  0  0  0  0  0  0  0
   -9.9193   -3.8805    6.5769 H   0  0  0  0  0  0  0  0  0  0  0  0
   -5.9042   -3.3328    6.7629 H   0  0  0  0  0  0  0  0  0  0  0  0
   -6.8865   -1.9285    7.1621 H   0  0  0  0  0  0  0  0  0  0  0  0
   -6.6715   -3.3617    4.4393 H   0  0  0  0  0  0  0  0  0  0  0  0
   -5.9227   -1.8114    4.7874 H   0  0  0  0  0  0  0  0  0  0  0  0
   -8.8339    0.4210    8.1008 H   0  0  0  0  0  0  0  0  0  0  0  0
  1  2  1  0
  2  3  1  0
  2  4  1  0
  4  5  2  0
  5  6  1  0
  6  7  1  0
  6  8  2  0
  8  9  1  0
  9 10  2  0
 10 11  1  0
 11 12  1  0
 12 13  1  0
 13 14  1  0
 14 15  1  0
 15 16  1  0
 10 17  1  0
 17 18  2  0
 18 19  1  0
 19 20  2  0
 20  4  1  0
 19  8  1  0
 16 11  1  0
  2 21  1  0
  5 22  1  0
  9 23  1  0
 12 24  1  0
 12 25  1  0
 13 26  1  0
 13 27  1  0
 15 28  1  0
 15 29  1  0
 16 30  1  0
 16 31  1  0
 18 32  1  0
M  END
>  <Energy>  (388) 
157.56385205565832

>  <compound_id>  (388) 
1705

>  <target_id>  (388) 
1

>  <reference_id>  (388) 
24

>  <inspiration_ids>  (388) 
[17, 24]

>  <energy_score>  (388) 
23.880881906065554

>  <distance_score>  (388) 
2.094251917679878

>  <path>  (388) 
/opt/xchem-fragalysis-2/maxwin/BulkDock/SCRATCH/505732/C1705-P24/C1705-P24.minimised.mol

>  <scratch_subdir>  (388) 
/opt/xchem-fragalysis-2/maxwin/BulkDock/SCRATCH/505732/C1705-P24

>  <fragmenstein_runtime>  (388) 
16.947619676589966

>  <fragmenstein_outcome>  (388) 
too moved

>  <fragmenstein_mode>  (388) 
expansion

>  <fragmenstein_error>  (388) 


$$$$
C1706-P17
     RDKit          3D

 31 34  0  0  0  0  0  0  0  0999 V2000
   -5.1838    2.4323    3.5489 O   0  0  0  0  0  0  0  0  0  0  0  0
   -5.6512    1.6242    4.3361 C   0  0  0  0  0  0  0  0  0  0  0  0
   -6.4775    0.5906    3.9409 N   0  0  0  0  0  0  0  0  0  0  0  0
   -6.3812   -0.5006    4.6341 C   0  0  0  0  0  0  0  0  0  0  0  0
   -7.3901   -1.5705    4.4405 C   0  0  0  0  0  0  0  0  0  0  0  0
   -7.2868   -2.7295    5.1018 C   0  0  0  0  0  0  0  0  0  0  0  0
   -6.1352   -3.0479    5.8990 C   0  0  0  0  0  0  0  0  0  0  0  0
   -5.1846   -2.1423    6.1302 C   0  0  0  0  0  0  0  0  0  0  0  0
   -4.0642   -2.5289    6.7699 F   0  0  0  0  0  0  0  0  0  0  0  0
   -5.3775   -0.7671    5.7146 C   0  0  0  0  0  0  0  0  0  0  0  0
   -4.9728    0.3595    6.3341 C   0  0  0  0  0  0  0  0  0  0  0  0
   -3.9725    0.1131    8.1295 I   0  0  0  0  0  0  0  0  0  0  0  0
   -5.5593    1.6931    5.8528 C   0  0  0  0  0  0  0  0  0  0  0  0
   -4.9425    3.2304    6.5097 S   0  0  0  0  0  0  0  0  0  0  0  0
   -6.2079    3.8099    7.5208 C   0  0  0  0  0  0  0  0  0  0  0  0
   -6.2088    5.1374    7.7575 C   0  0  0  0  0  0  0  0  0  0  0  0
   -7.3383    5.7341    8.4356 C   0  0  0  0  0  0  0  0  0  0  0  0
   -8.4363    5.0139    8.7338 C   0  0  0  0  0  0  0  0  0  0  0  0
   -8.4611    3.6116    8.4991 C   0  0  0  0  0  0  0  0  0  0  0  0
   -9.3823    2.6772    8.6584 N   0  0  0  0  0  0  0  0  0  0  0  0
   -8.8045    1.4564    8.4597 N   0  0  0  0  0  0  0  0  0  0  0  0
   -7.5451    1.6864    8.1914 C   0  0  0  0  0  0  0  0  0  0  0  0
   -7.2960    3.0338    8.0118 N   0  0  0  0  0  0  0  0  0  0  0  0
   -8.2313   -1.3481    3.7936 H   0  0  0  0  0  0  0  0  0  0  0  0
   -8.0547   -3.4916    5.0019 H   0  0  0  0  0  0  0  0  0  0  0  0
   -6.0595   -4.0536    6.2825 H   0  0  0  0  0  0  0  0  0  0  0  0
   -6.6238    1.6812    6.0814 H   0  0  0  0  0  0  0  0  0  0  0  0
   -5.4353    5.8085    7.3927 H   0  0  0  0  0  0  0  0  0  0  0  0
   -7.3070    6.8011    8.6369 H   0  0  0  0  0  0  0  0  0  0  0  0
   -9.3029    5.4694    9.2007 H   0  0  0  0  0  0  0  0  0  0  0  0
   -6.8079    0.9131    8.1342 H   0  0  0  0  0  0  0  0  0  0  0  0
  1  2  2  0
  2  3  1  0
  3  4  2  0
  4  5  1  0
  5  6  2  0
  6  7  1  0
  7  8  2  0
  8  9  1  0
  8 10  1  0
 10 11  2  0
 11 12  1  0
 11 13  1  0
 13 14  1  0
 14 15  1  0
 15 16  2  0
 16 17  1  0
 17 18  2  0
 18 19  1  0
 19 20  2  0
 20 21  1  0
 21 22  2  0
 22 23  1  0
 13  2  1  0
 23 15  1  0
 10  4  1  0
 23 19  1  0
  5 24  1  0
  6 25  1  0
  7 26  1  0
 13 27  1  0
 16 28  1  0
 17 29  1  0
 18 30  1  0
 22 31  1  0
M  END
>  <Energy>  (389) 
121.6818610234412

>  <compound_id>  (389) 
1706

>  <target_id>  (389) 
1

>  <reference_id>  (389) 
17

>  <inspiration_ids>  (389) 
[17, 33]

>  <energy_score>  (389) 
-35.54593388760546

>  <distance_score>  (389) 
2.6562823618802702

>  <path>  (389) 
/opt/xchem-fragalysis-2/maxwin/BulkDock/SCRATCH/505732/C1706-P17/C1706-P17.minimised.mol

>  <scratch_subdir>  (389) 
/opt/xchem-fragalysis-2/maxwin/BulkDock/SCRATCH/505732/C1706-P17

>  <fragmenstein_runtime>  (389) 
2.873030662536621

>  <fragmenstein_outcome>  (389) 
too moved

>  <fragmenstein_mode>  (389) 
expansion

>  <fragmenstein_error>  (389) 


$$$$
C1706-P33
     RDKit          3D

 31 34  0  0  0  0  0  0  0  0999 V2000
   -5.6189    1.4568    2.8041 O   0  0  0  0  0  0  0  0  0  0  0  0
   -6.0114    0.9731    3.8575 C   0  0  0  0  0  0  0  0  0  0  0  0
   -6.5585   -0.2853    3.9436 N   0  0  0  0  0  0  0  0  0  0  0  0
   -6.1380   -0.9786    4.9524 C   0  0  0  0  0  0  0  0  0  0  0  0
   -6.6905   -2.3289    5.1975 C   0  0  0  0  0  0  0  0  0  0  0  0
   -6.0865   -3.1386    6.0744 C   0  0  0  0  0  0  0  0  0  0  0  0
   -4.8505   -2.7699    6.7196 C   0  0  0  0  0  0  0  0  0  0  0  0
   -4.4135   -1.5128    6.6954 C   0  0  0  0  0  0  0  0  0  0  0  0
   -3.2294   -1.2262    7.2707 F   0  0  0  0  0  0  0  0  0  0  0  0
   -5.1439   -0.5051    5.9651 C   0  0  0  0  0  0  0  0  0  0  0  0
   -5.1657    0.8315    6.1245 C   0  0  0  0  0  0  0  0  0  0  0  0
   -4.2012    1.6267    7.6927 I   0  0  0  0  0  0  0  0  0  0  0  0
   -6.0127    1.6884    5.2025 C   0  0  0  0  0  0  0  0  0  0  0  0
   -5.6544    3.4660    4.9800 S   0  0  0  0  0  0  0  0  0  0  0  0
   -6.2979    4.1604    6.4258 C   0  0  0  0  0  0  0  0  0  0  0  0
   -5.6096    5.1536    7.0294 C   0  0  0  0  0  0  0  0  0  0  0  0
   -6.1235    5.7164    8.2626 C   0  0  0  0  0  0  0  0  0  0  0  0
   -7.1955    5.1815    8.8761 C   0  0  0  0  0  0  0  0  0  0  0  0
   -7.8071    4.0073    8.3549 C   0  0  0  0  0  0  0  0  0  0  0  0
   -8.6205    3.0810    8.8392 N   0  0  0  0  0  0  0  0  0  0  0  0
   -9.0149    2.2715    7.8068 N   0  0  0  0  0  0  0  0  0  0  0  0
   -8.4485    2.7622    6.7321 C   0  0  0  0  0  0  0  0  0  0  0  0
   -7.4468    3.6462    7.0725 N   0  0  0  0  0  0  0  0  0  0  0  0
   -7.5818   -2.6218    4.6557 H   0  0  0  0  0  0  0  0  0  0  0  0
   -6.4998   -4.1236    6.2727 H   0  0  0  0  0  0  0  0  0  0  0  0
   -4.2490   -3.5188    7.2178 H   0  0  0  0  0  0  0  0  0  0  0  0
   -7.0338    1.5536    5.5203 H   0  0  0  0  0  0  0  0  0  0  0  0
   -4.6901    5.5695    6.6261 H   0  0  0  0  0  0  0  0  0  0  0  0
   -5.6307    6.5950    8.6688 H   0  0  0  0  0  0  0  0  0  0  0  0
   -7.5946    5.6132    9.7875 H   0  0  0  0  0  0  0  0  0  0  0  0
   -8.7134    2.5111    5.7156 H   0  0  0  0  0  0  0  0  0  0  0  0
  1  2  2  0
  2  3  1  0
  3  4  2  0
  4  5  1  0
  5  6  2  0
  6  7  1  0
  7  8  2  0
  8  9  1  0
  8 10  1  0
 10 11  2  0
 11 12  1  0
 11 13  1  0
 13 14  1  0
 14 15  1  0
 15 16  2  0
 16 17  1  0
 17 18  2  0
 18 19  1  0
 19 20  2  0
 20 21  1  0
 21 22  2  0
 22 23  1  0
 13  2  1  0
 23 15  1  0
 10  4  1  0
 23 19  1  0
  5 24  1  0
  6 25  1  0
  7 26  1  0
 13 27  1  0
 16 28  1  0
 17 29  1  0
 18 30  1  0
 22 31  1  0
M  END
>  <Energy>  (390) 
114.89083965112518

>  <compound_id>  (390) 
1706

>  <target_id>  (390) 
1

>  <reference_id>  (390) 
33

>  <inspiration_ids>  (390) 
[17, 33]

>  <energy_score>  (390) 
-42.33695525992121

>  <distance_score>  (390) 
2.708648735163936

>  <path>  (390) 
/opt/xchem-fragalysis-2/maxwin/BulkDock/SCRATCH/505732/C1706-P33/C1706-P33.minimised.mol

>  <scratch_subdir>  (390) 
/opt/xchem-fragalysis-2/maxwin/BulkDock/SCRATCH/505732/C1706-P33

>  <fragmenstein_runtime>  (390) 
2.4998013973236084

>  <fragmenstein_outcome>  (390) 
too moved

>  <fragmenstein_mode>  (390) 
expansion

>  <fragmenstein_error>  (390) 


$$$$
C1708-P17
     RDKit          3D

 32 34  0  0  0  0  0  0  0  0999 V2000
   -7.7660    2.8313    7.8904 C   0  0  0  0  0  0  0  0  0  0  0  0
   -8.0323    1.3878    8.2286 C   0  0  0  0  0  0  0  0  0  0  0  0
   -9.3831    1.0169    8.3617 C   0  0  0  0  0  0  0  0  0  0  0  0
   -9.7681   -0.3081    8.5532 C   0  0  0  0  0  0  0  0  0  0  0  0
   -8.8069   -1.2924    8.6522 C   0  0  0  0  0  0  0  0  0  0  0  0
   -7.4683   -0.9446    8.5855 C   0  0  0  0  0  0  0  0  0  0  0  0
   -7.0616    0.3755    8.3209 C   0  0  0  0  0  0  0  0  0  0  0  0
   -5.7007    0.5722    7.9437 N   0  0  0  0  0  0  0  0  0  0  0  0
   -4.8373   -0.4554    7.5758 C   0  0  0  0  0  0  0  0  0  0  0  0
   -4.7843   -0.1247    6.2387 C   0  0  0  0  0  0  0  0  0  0  0  0
   -5.0715   -1.0078    5.1463 C   0  0  0  0  0  0  0  0  0  0  0  0
   -6.2177   -1.8210    5.2251 C   0  0  0  0  0  0  0  0  0  0  0  0
   -6.7215   -2.4209    4.0781 C   0  0  0  0  0  0  0  0  0  0  0  0
   -8.4624   -3.1465    4.1026 Br  0  0  0  0  0  0  0  0  0  0  0  0
   -6.0418   -2.3115    2.8713 C   0  0  0  0  0  0  0  0  0  0  0  0
   -4.8847   -1.5360    2.8082 C   0  0  0  0  0  0  0  0  0  0  0  0
   -4.4217   -0.8648    3.9277 C   0  0  0  0  0  0  0  0  0  0  0  0
   -3.3672   -0.0287    3.7165 O   0  0  0  0  0  0  0  0  0  0  0  0
   -4.8788    1.2336    6.1071 N   0  0  0  0  0  0  0  0  0  0  0  0
   -5.2796    1.6831    7.2870 N   0  0  0  0  0  0  0  0  0  0  0  0
   -8.6048    3.4680    8.1949 H   0  0  0  0  0  0  0  0  0  0  0  0
   -7.6362    2.9474    6.8096 H   0  0  0  0  0  0  0  0  0  0  0  0
   -6.8909    3.2227    8.4126 H   0  0  0  0  0  0  0  0  0  0  0  0
  -10.1642    1.7716    8.2808 H   0  0  0  0  0  0  0  0  0  0  0  0
  -10.8196   -0.5717    8.6293 H   0  0  0  0  0  0  0  0  0  0  0  0
   -9.0962   -2.3296    8.7932 H   0  0  0  0  0  0  0  0  0  0  0  0
   -6.7610   -1.7574    8.6665 H   0  0  0  0  0  0  0  0  0  0  0  0
   -4.8124   -1.4048    8.0855 H   0  0  0  0  0  0  0  0  0  0  0  0
   -6.7992   -1.8819    6.1376 H   0  0  0  0  0  0  0  0  0  0  0  0
   -6.4296   -2.7667    1.9641 H   0  0  0  0  0  0  0  0  0  0  0  0
   -4.3760   -1.4144    1.8540 H   0  0  0  0  0  0  0  0  0  0  0  0
   -3.5945    0.8473    4.0977 H   0  0  0  0  0  0  0  0  0  0  0  0
  1  2  1  0
  2  3  2  0
  3  4  1  0
  4  5  2  0
  5  6  1  0
  6  7  2  0
  7  8  1  0
  8  9  1  0
  9 10  2  0
 10 11  1  0
 11 12  2  0
 12 13  1  0
 13 14  1  0
 13 15  2  0
 15 16  1  0
 16 17  2  0
 17 18  1  0
 10 19  1  0
 19 20  2  0
  7  2  1  0
 20  8  1  0
 17 11  1  0
  1 21  1  0
  1 22  1  0
  1 23  1  0
  3 24  1  0
  4 25  1  0
  5 26  1  0
  6 27  1  0
  9 28  1  0
 12 29  1  0
 15 30  1  0
 16 31  1  0
 18 32  1  0
M  END
>  <Energy>  (391) 
98.999617912433123

>  <compound_id>  (391) 
1708

>  <target_id>  (391) 
1

>  <reference_id>  (391) 
17

>  <inspiration_ids>  (391) 
[17, 65]

>  <energy_score>  (391) 
13.85127665535299

>  <distance_score>  (391) 
2.284595357607965

>  <path>  (391) 
/opt/xchem-fragalysis-2/maxwin/BulkDock/SCRATCH/505732/C1708-P17/C1708-P17.minimised.mol

>  <scratch_subdir>  (391) 
/opt/xchem-fragalysis-2/maxwin/BulkDock/SCRATCH/505732/C1708-P17

>  <fragmenstein_runtime>  (391) 
3.7397024631500244

>  <fragmenstein_outcome>  (391) 
too moved

>  <fragmenstein_mode>  (391) 
expansion

>  <fragmenstein_error>  (391) 


$$$$
C1708-P65
     RDKit          3D

 32 34  0  0  0  0  0  0  0  0999 V2000
   -7.3438    2.4043    7.2641 C   0  0  0  0  0  0  0  0  0  0  0  0
   -7.9464    1.0600    7.5669 C   0  0  0  0  0  0  0  0  0  0  0  0
   -9.3454    1.0088    7.6894 C   0  0  0  0  0  0  0  0  0  0  0  0
  -10.0263   -0.1983    7.8328 C   0  0  0  0  0  0  0  0  0  0  0  0
   -9.3260   -1.3875    7.8564 C   0  0  0  0  0  0  0  0  0  0  0  0
   -7.9434   -1.3616    7.7931 C   0  0  0  0  0  0  0  0  0  0  0  0
   -7.2323   -0.1483    7.6734 C   0  0  0  0  0  0  0  0  0  0  0  0
   -5.8149   -0.2178    7.5923 N   0  0  0  0  0  0  0  0  0  0  0  0
   -5.0722   -1.3742    7.3415 C   0  0  0  0  0  0  0  0  0  0  0  0
   -4.3885   -0.8658    6.2606 C   0  0  0  0  0  0  0  0  0  0  0  0
   -4.8210   -1.2289    4.9209 C   0  0  0  0  0  0  0  0  0  0  0  0
   -5.1462   -2.5532    4.5932 C   0  0  0  0  0  0  0  0  0  0  0  0
   -5.7130   -2.8351    3.3495 C   0  0  0  0  0  0  0  0  0  0  0  0
   -6.0678   -4.6014    2.7949 Br  0  0  0  0  0  0  0  0  0  0  0  0
   -5.9766   -1.8172    2.4361 C   0  0  0  0  0  0  0  0  0  0  0  0
   -5.6910   -0.5029    2.7754 C   0  0  0  0  0  0  0  0  0  0  0  0
   -5.1394   -0.2124    4.0083 C   0  0  0  0  0  0  0  0  0  0  0  0
   -5.0362    1.1272    4.2608 O   0  0  0  0  0  0  0  0  0  0  0  0
   -4.0351    0.4147    6.5788 N   0  0  0  0  0  0  0  0  0  0  0  0
   -4.9814    0.8467    7.4002 N   0  0  0  0  0  0  0  0  0  0  0  0
   -6.6935    2.7411    8.0702 H   0  0  0  0  0  0  0  0  0  0  0  0
   -8.1163    3.1734    7.1479 H   0  0  0  0  0  0  0  0  0  0  0  0
   -6.7962    2.3756    6.3171 H   0  0  0  0  0  0  0  0  0  0  0  0
   -9.9341    1.9230    7.6346 H   0  0  0  0  0  0  0  0  0  0  0  0
  -11.1109   -0.2114    7.9007 H   0  0  0  0  0  0  0  0  0  0  0  0
   -9.8559   -2.3321    7.9408 H   0  0  0  0  0  0  0  0  0  0  0  0
   -7.4636   -2.3305    7.8418 H   0  0  0  0  0  0  0  0  0  0  0  0
   -5.5023   -2.3471    7.4903 H   0  0  0  0  0  0  0  0  0  0  0  0
   -4.9570   -3.3572    5.2959 H   0  0  0  0  0  0  0  0  0  0  0  0
   -6.4100   -2.0330    1.4627 H   0  0  0  0  0  0  0  0  0  0  0  0
   -5.9283    0.3009    2.0826 H   0  0  0  0  0  0  0  0  0  0  0  0
   -4.5835    1.2402    5.1224 H   0  0  0  0  0  0  0  0  0  0  0  0
  1  2  1  0
  2  3  2  0
  3  4  1  0
  4  5  2  0
  5  6  1  0
  6  7  2  0
  7  8  1  0
  8  9  1  0
  9 10  2  0
 10 11  1  0
 11 12  2  0
 12 13  1  0
 13 14  1  0
 13 15  2  0
 15 16  1  0
 16 17  2  0
 17 18  1  0
 10 19  1  0
 19 20  2  0
  7  2  1  0
 20  8  1  0
 17 11  1  0
  1 21  1  0
  1 22  1  0
  1 23  1  0
  3 24  1  0
  4 25  1  0
  5 26  1  0
  6 27  1  0
  9 28  1  0
 12 29  1  0
 15 30  1  0
 16 31  1  0
 18 32  1  0
M  END
>  <Energy>  (392) 
97.781480195734588

>  <compound_id>  (392) 
1708

>  <target_id>  (392) 
1

>  <reference_id>  (392) 
65

>  <inspiration_ids>  (392) 
[17, 65]

>  <energy_score>  (392) 
12.633138938654696

>  <distance_score>  (392) 
2.5468709801321308

>  <path>  (392) 
/opt/xchem-fragalysis-2/maxwin/BulkDock/SCRATCH/505732/C1708-P65/C1708-P65.minimised.mol

>  <scratch_subdir>  (392) 
/opt/xchem-fragalysis-2/maxwin/BulkDock/SCRATCH/505732/C1708-P65

>  <fragmenstein_runtime>  (392) 
3.4258649349212646

>  <fragmenstein_outcome>  (392) 
too moved

>  <fragmenstein_mode>  (392) 
expansion

>  <fragmenstein_error>  (392) 


$$$$
C1711-P17
     RDKit          3D

 52 55  0  0  0  0  0  0  0  0999 V2000
  -15.8920   -4.6846    1.1719 N   0  0  0  0  0  0  0  0  0  0  0  0
  -15.5448   -3.6228    0.8551 C   0  0  0  0  0  0  0  0  0  0  0  0
  -15.1600   -2.3018    0.4651 C   0  0  0  0  0  0  0  0  0  0  0  0
  -14.0976   -1.6811    1.1340 C   0  0  0  0  0  0  0  0  0  0  0  0
  -13.7320   -0.3783    0.7958 C   0  0  0  0  0  0  0  0  0  0  0  0
  -12.6806    0.2460    1.4048 O   0  0  0  0  0  0  0  0  0  0  0  0
  -12.9525    0.5278    2.7875 C   0  0  0  0  0  0  0  0  0  0  0  0
  -11.6636    0.9943    3.4696 C   0  0  0  0  0  0  0  0  0  0  0  0
  -10.7362   -0.1148    3.6345 N   0  0  0  0  0  0  0  0  0  0  0  0
  -10.6750   -0.8899    4.5630 C   0  0  0  0  0  0  0  0  0  0  0  0
  -11.5857   -0.7749    5.8220 C   0  0  0  0  0  0  0  0  0  0  0  0
  -10.7540   -0.1945    6.9545 C   0  0  0  0  0  0  0  0  0  0  0  0
  -10.8464    1.1598    7.3014 C   0  0  0  0  0  0  0  0  0  0  0  0
   -9.9920    1.7204    8.2680 C   0  0  0  0  0  0  0  0  0  0  0  0
   -9.0101    0.9430    8.8843 C   0  0  0  0  0  0  0  0  0  0  0  0
   -8.9164   -0.3780    8.5266 C   0  0  0  0  0  0  0  0  0  0  0  0
   -9.7698   -0.9346    7.6069 C   0  0  0  0  0  0  0  0  0  0  0  0
   -9.4893   -2.2531    7.3938 O   0  0  0  0  0  0  0  0  0  0  0  0
   -8.3719   -2.4375    8.2706 C   0  0  0  0  0  0  0  0  0  0  0  0
   -7.9934   -1.2546    8.9914 O   0  0  0  0  0  0  0  0  0  0  0  0
   -9.6799   -2.0841    4.8363 N   0  0  0  0  0  0  0  0  0  0  0  0
   -8.5842   -2.4949    4.1509 C   0  0  0  0  0  0  0  0  0  0  0  0
   -8.2800   -1.9914    2.8391 C   0  0  0  0  0  0  0  0  0  0  0  0
   -7.1362   -2.3140    2.2176 C   0  0  0  0  0  0  0  0  0  0  0  0
   -6.1681   -3.2131    2.8920 C   0  0  0  0  0  0  0  0  0  0  0  0
   -5.1466   -3.5767    2.3228 O   0  0  0  0  0  0  0  0  0  0  0  0
   -6.5046   -3.6259    4.1476 N   0  0  0  0  0  0  0  0  0  0  0  0
   -7.6803   -3.2912    4.7493 C   0  0  0  0  0  0  0  0  0  0  0  0
  -14.3789    0.2932   -0.2379 C   0  0  0  0  0  0  0  0  0  0  0  0
  -15.4344   -0.3229   -0.9098 C   0  0  0  0  0  0  0  0  0  0  0  0
  -15.8271   -1.6140   -0.5565 C   0  0  0  0  0  0  0  0  0  0  0  0
  -16.8757   -2.1313   -1.2682 O   0  0  0  0  0  0  0  0  0  0  0  0
  -13.5436   -2.2082    1.9092 H   0  0  0  0  0  0  0  0  0  0  0  0
  -13.3547   -0.3468    3.3117 H   0  0  0  0  0  0  0  0  0  0  0  0
  -13.6922    1.3364    2.8327 H   0  0  0  0  0  0  0  0  0  0  0  0
  -11.8894    1.4878    4.4188 H   0  0  0  0  0  0  0  0  0  0  0  0
  -11.1720    1.7470    2.8423 H   0  0  0  0  0  0  0  0  0  0  0  0
  -12.4807   -0.1757    5.6417 H   0  0  0  0  0  0  0  0  0  0  0  0
  -11.9388   -1.7718    6.1087 H   0  0  0  0  0  0  0  0  0  0  0  0
  -11.5805    1.8009    6.8194 H   0  0  0  0  0  0  0  0  0  0  0  0
  -10.0850    2.7725    8.5261 H   0  0  0  0  0  0  0  0  0  0  0  0
   -8.3391    1.3656    9.6177 H   0  0  0  0  0  0  0  0  0  0  0  0
   -7.5077   -2.7549    7.6793 H   0  0  0  0  0  0  0  0  0  0  0  0
   -8.6209   -3.2427    8.9639 H   0  0  0  0  0  0  0  0  0  0  0  0
   -9.8653   -2.4747    5.7568 H   0  0  0  0  0  0  0  0  0  0  0  0
   -8.9912   -1.3384    2.3455 H   0  0  0  0  0  0  0  0  0  0  0  0
   -6.8786   -1.9522    1.2321 H   0  0  0  0  0  0  0  0  0  0  0  0
   -5.8560   -4.2520    4.6013 H   0  0  0  0  0  0  0  0  0  0  0  0
   -7.8361   -3.7182    5.7311 H   0  0  0  0  0  0  0  0  0  0  0  0
  -14.0623    1.2943   -0.5181 H   0  0  0  0  0  0  0  0  0  0  0  0
  -15.9474    0.2020   -1.7117 H   0  0  0  0  0  0  0  0  0  0  0  0
  -17.0658   -3.0464   -0.9987 H   0  0  0  0  0  0  0  0  0  0  0  0
  1  2  3  0
  2  3  1  0
  3  4  2  0
  4  5  1  0
  5  6  1  0
  6  7  1  0
  7  8  1  0
  8  9  1  0
  9 10  2  3
 10 11  1  0
 11 12  1  0
 12 13  2  0
 13 14  1  0
 14 15  2  0
 15 16  1  0
 16 17  2  0
 17 18  1  0
 18 19  1  0
 19 20  1  0
 10 21  1  0
 21 22  1  0
 22 23  1  0
 23 24  2  0
 24 25  1  0
 25 26  2  0
 25 27  1  0
 27 28  1  0
  5 29  2  0
 29 30  1  0
 30 31  2  0
 31 32  1  0
 31  3  1  0
 17 12  1  0
 28 22  2  0
 20 16  1  0
  4 33  1  0
  7 34  1  0
  7 35  1  0
  8 36  1  0
  8 37  1  0
 11 38  1  0
 11 39  1  0
 13 40  1  0
 14 41  1  0
 15 42  1  0
 19 43  1  0
 19 44  1  0
 21 45  1  0
 23 46  1  0
 24 47  1  0
 27 48  1  0
 28 49  1  0
 29 50  1  0
 30 51  1  0
 32 52  1  0
M  END
>  <Energy>  (393) 
89.565961574058178

>  <compound_id>  (393) 
1711

>  <target_id>  (393) 
1

>  <reference_id>  (393) 
17

>  <inspiration_ids>  (393) 
[17, 95]

>  <energy_score>  (393) 
-51.72534296177611

>  <distance_score>  (393) 
2.670440455295701

>  <path>  (393) 
/opt/xchem-fragalysis-2/maxwin/BulkDock/SCRATCH/505732/C1711-P17/C1711-P17.minimised.mol

>  <scratch_subdir>  (393) 
/opt/xchem-fragalysis-2/maxwin/BulkDock/SCRATCH/505732/C1711-P17

>  <fragmenstein_runtime>  (393) 
28.578168392181396

>  <fragmenstein_outcome>  (393) 
too moved

>  <fragmenstein_mode>  (393) 
expansion

>  <fragmenstein_error>  (393) 


$$$$
C1711-P95
     RDKit          3D

 52 55  0  0  0  0  0  0  0  0999 V2000
  -12.5961   -0.4758    9.1804 N   0  0  0  0  0  0  0  0  0  0  0  0
  -13.2861   -0.4966    8.2472 C   0  0  0  0  0  0  0  0  0  0  0  0
  -14.2149   -0.4494    7.1567 C   0  0  0  0  0  0  0  0  0  0  0  0
  -13.7545   -0.1632    5.8636 C   0  0  0  0  0  0  0  0  0  0  0  0
  -14.6666   -0.0050    4.8161 C   0  0  0  0  0  0  0  0  0  0  0  0
  -14.3214    0.2962    3.5251 O   0  0  0  0  0  0  0  0  0  0  0  0
  -13.1623   -0.3920    3.0332 C   0  0  0  0  0  0  0  0  0  0  0  0
  -11.9397    0.5341    3.0265 C   0  0  0  0  0  0  0  0  0  0  0  0
  -10.7969   -0.1988    3.5460 N   0  0  0  0  0  0  0  0  0  0  0  0
   -9.7143    0.3001    3.9213 C   0  0  0  0  0  0  0  0  0  0  0  0
   -9.5050    1.8495    3.8531 C   0  0  0  0  0  0  0  0  0  0  0  0
   -9.5131    2.3915    5.2685 C   0  0  0  0  0  0  0  0  0  0  0  0
  -10.6900    2.8354    5.8888 C   0  0  0  0  0  0  0  0  0  0  0  0
  -10.7068    3.1626    7.2589 C   0  0  0  0  0  0  0  0  0  0  0  0
   -9.5516    3.0453    8.0360 C   0  0  0  0  0  0  0  0  0  0  0  0
   -8.4035    2.6190    7.4106 C   0  0  0  0  0  0  0  0  0  0  0  0
   -8.3843    2.3076    6.0721 C   0  0  0  0  0  0  0  0  0  0  0  0
   -7.1629    1.8479    5.6693 O   0  0  0  0  0  0  0  0  0  0  0  0
   -6.4089    1.9806    6.8918 C   0  0  0  0  0  0  0  0  0  0  0  0
   -7.1969    2.4350    8.0036 O   0  0  0  0  0  0  0  0  0  0  0  0
   -8.5461   -0.3127    4.5430 N   0  0  0  0  0  0  0  0  0  0  0  0
   -8.3223   -1.5876    4.9822 C   0  0  0  0  0  0  0  0  0  0  0  0
   -9.4354   -2.4951    5.1719 C   0  0  0  0  0  0  0  0  0  0  0  0
   -9.3322   -3.5869    5.9378 C   0  0  0  0  0  0  0  0  0  0  0  0
   -8.0419   -3.9099    6.5755 C   0  0  0  0  0  0  0  0  0  0  0  0
   -7.9389   -4.8224    7.3836 O   0  0  0  0  0  0  0  0  0  0  0  0
   -6.9807   -3.1215    6.2004 N   0  0  0  0  0  0  0  0  0  0  0  0
   -7.1249   -1.9657    5.4734 C   0  0  0  0  0  0  0  0  0  0  0  0
  -16.0370   -0.0885    5.0679 C   0  0  0  0  0  0  0  0  0  0  0  0
  -16.5001   -0.3989    6.3461 C   0  0  0  0  0  0  0  0  0  0  0  0
  -15.5889   -0.6040    7.3785 C   0  0  0  0  0  0  0  0  0  0  0  0
  -16.1156   -0.9667    8.5900 O   0  0  0  0  0  0  0  0  0  0  0  0
  -12.6858   -0.0569    5.6940 H   0  0  0  0  0  0  0  0  0  0  0  0
  -13.3898   -0.6829    2.0009 H   0  0  0  0  0  0  0  0  0  0  0  0
  -12.9873   -1.3281    3.5761 H   0  0  0  0  0  0  0  0  0  0  0  0
  -12.1603    1.4226    3.6240 H   0  0  0  0  0  0  0  0  0  0  0  0
  -11.7376    0.8560    1.9987 H   0  0  0  0  0  0  0  0  0  0  0  0
  -10.2508    2.3594    3.2397 H   0  0  0  0  0  0  0  0  0  0  0  0
   -8.5387    2.0542    3.3754 H   0  0  0  0  0  0  0  0  0  0  0  0
  -11.6195    2.9015    5.3280 H   0  0  0  0  0  0  0  0  0  0  0  0
  -11.6361    3.4832    7.7247 H   0  0  0  0  0  0  0  0  0  0  0  0
   -9.5595    3.2702    9.0968 H   0  0  0  0  0  0  0  0  0  0  0  0
   -5.6005    2.7005    6.7244 H   0  0  0  0  0  0  0  0  0  0  0  0
   -5.9797    1.0049    7.1440 H   0  0  0  0  0  0  0  0  0  0  0  0
   -7.8161    0.3883    4.6339 H   0  0  0  0  0  0  0  0  0  0  0  0
  -10.3958   -2.2607    4.7319 H   0  0  0  0  0  0  0  0  0  0  0  0
  -10.1645   -4.2484    6.1195 H   0  0  0  0  0  0  0  0  0  0  0  0
   -6.1003   -3.3417    6.6472 H   0  0  0  0  0  0  0  0  0  0  0  0
   -6.2429   -1.3377    5.4118 H   0  0  0  0  0  0  0  0  0  0  0  0
  -16.7454    0.0616    4.2578 H   0  0  0  0  0  0  0  0  0  0  0  0
  -17.5652   -0.4992    6.5307 H   0  0  0  0  0  0  0  0  0  0  0  0
  -15.4570   -1.5302    9.0565 H   0  0  0  0  0  0  0  0  0  0  0  0
  1  2  3  0
  2  3  1  0
  3  4  2  0
  4  5  1  0
  5  6  1  0
  6  7  1  0
  7  8  1  0
  8  9  1  0
  9 10  2  3
 10 11  1  0
 11 12  1  0
 12 13  2  0
 13 14  1  0
 14 15  2  0
 15 16  1  0
 16 17  2  0
 17 18  1  0
 18 19  1  0
 19 20  1  0
 10 21  1  0
 21 22  1  0
 22 23  1  0
 23 24  2  0
 24 25  1  0
 25 26  2  0
 25 27  1  0
 27 28  1  0
  5 29  2  0
 29 30  1  0
 30 31  2  0
 31 32  1  0
 31  3  1  0
 17 12  1  0
 28 22  2  0
 20 16  1  0
  4 33  1  0
  7 34  1  0
  7 35  1  0
  8 36  1  0
  8 37  1  0
 11 38  1  0
 11 39  1  0
 13 40  1  0
 14 41  1  0
 15 42  1  0
 19 43  1  0
 19 44  1  0
 21 45  1  0
 23 46  1  0
 24 47  1  0
 27 48  1  0
 28 49  1  0
 29 50  1  0
 30 51  1  0
 32 52  1  0
M  END
>  <Energy>  (394) 
75.626167610549174

>  <compound_id>  (394) 
1711

>  <target_id>  (394) 
1

>  <reference_id>  (394) 
95

>  <inspiration_ids>  (394) 
[17, 95]

>  <energy_score>  (394) 
-40.91042985760845

>  <distance_score>  (394) 
2.7346593049325145

>  <path>  (394) 
/opt/xchem-fragalysis-2/maxwin/BulkDock/SCRATCH/505732/C1711-P95/C1711-P95.minimised.mol

>  <scratch_subdir>  (394) 
/opt/xchem-fragalysis-2/maxwin/BulkDock/SCRATCH/505732/C1711-P95

>  <fragmenstein_runtime>  (394) 
32.4173629283905

>  <fragmenstein_outcome>  (394) 
too moved

>  <fragmenstein_mode>  (394) 
expansion

>  <fragmenstein_error>  (394) 


$$$$
C1713-P17
     RDKit          3D

 57 60  0  0  0  0  0  0  0  0999 V2000
  -14.6868   -0.8223   11.0564 N   0  0  0  0  0  0  0  0  0  0  0  0
  -13.9087    0.0648   10.2103 C   0  0  0  0  0  0  0  0  0  0  0  0
  -12.5878   -0.5481    9.9257 N   0  0  0  0  0  0  0  0  0  0  0  0
  -11.6756    0.1989    8.9751 C   0  0  0  0  0  0  0  0  0  0  0  0
  -10.1174   -0.2269    8.9857 C   0  0  0  0  0  0  0  0  0  0  0  0
   -9.8123   -1.5237    8.1805 C   0  0  0  0  0  0  0  0  0  0  0  0
   -8.8629   -1.4499    7.0203 N   0  0  0  0  0  0  0  0  0  0  0  0
   -8.4113   -2.9907    6.4786 S   0  0  0  0  0  0  0  0  0  0  0  0
   -7.2963   -3.4493    7.2740 O   0  0  0  0  0  0  0  0  0  0  0  0
   -9.5859   -3.8121    6.3312 O   0  0  0  0  0  0  0  0  0  0  0  0
   -7.7887   -2.6594    4.9521 N   0  0  0  0  0  0  0  0  0  0  0  0
   -8.6002   -1.9884    3.9822 C   0  0  0  0  0  0  0  0  0  0  0  0
   -9.9105   -2.3859    3.6660 C   0  0  0  0  0  0  0  0  0  0  0  0
  -10.6233   -1.7601    2.6362 C   0  0  0  0  0  0  0  0  0  0  0  0
   -9.9941   -0.7608    1.9205 C   0  0  0  0  0  0  0  0  0  0  0  0
   -8.6860   -0.4044    2.2040 C   0  0  0  0  0  0  0  0  0  0  0  0
   -7.9633   -1.0136    3.2091 C   0  0  0  0  0  0  0  0  0  0  0  0
   -8.1947    0.5765    1.3810 O   0  0  0  0  0  0  0  0  0  0  0  0
   -9.3790    1.0895    0.7260 C   0  0  0  0  0  0  0  0  0  0  0  0
  -10.4729    0.0211    0.7604 C   0  0  0  0  0  0  0  0  0  0  0  0
   -7.7651   -0.4613    7.1479 C   0  0  0  0  0  0  0  0  0  0  0  0
   -7.8331    0.3523    8.4407 C   0  0  0  0  0  0  0  0  0  0  0  0
   -9.1871    0.8909    8.6614 N   0  0  0  0  0  0  0  0  0  0  0  0
  -13.8589    1.3667   10.9456 C   0  0  0  0  0  0  0  0  0  0  0  0
  -12.6903    1.7190   11.6341 C   0  0  0  0  0  0  0  0  0  0  0  0
  -12.5619    2.9703   12.1885 C   0  0  0  0  0  0  0  0  0  0  0  0
  -10.8466    3.5429   12.6819 Br  0  0  0  0  0  0  0  0  0  0  0  0
  -13.6544    3.8156   12.2411 C   0  0  0  0  0  0  0  0  0  0  0  0
  -14.8691    3.4186   11.6851 C   0  0  0  0  0  0  0  0  0  0  0  0
  -14.9640    2.2158   11.0102 C   0  0  0  0  0  0  0  0  0  0  0  0
  -16.1717    1.9439   10.4351 O   0  0  0  0  0  0  0  0  0  0  0  0
  -14.2945   -0.6986   11.9863 H   0  0  0  0  0  0  0  0  0  0  0  0
  -15.6351   -0.4593   11.1326 H   0  0  0  0  0  0  0  0  0  0  0  0
  -14.4140    0.1859    9.2458 H   0  0  0  0  0  0  0  0  0  0  0  0
  -12.7917   -1.4393    9.4713 H   0  0  0  0  0  0  0  0  0  0  0  0
  -11.7091    1.2662    9.2159 H   0  0  0  0  0  0  0  0  0  0  0  0
  -12.0674    0.1019    7.9552 H   0  0  0  0  0  0  0  0  0  0  0  0
   -9.9177   -0.4709   10.0401 H   0  0  0  0  0  0  0  0  0  0  0  0
   -9.3458   -2.2215    8.8839 H   0  0  0  0  0  0  0  0  0  0  0  0
  -10.7504   -1.9218    7.7818 H   0  0  0  0  0  0  0  0  0  0  0  0
   -7.4112   -3.5384    4.5999 H   0  0  0  0  0  0  0  0  0  0  0  0
  -10.4089   -3.1830    4.2134 H   0  0  0  0  0  0  0  0  0  0  0  0
  -11.6409   -2.0680    2.4173 H   0  0  0  0  0  0  0  0  0  0  0  0
   -6.9369   -0.7243    3.4018 H   0  0  0  0  0  0  0  0  0  0  0  0
   -9.1290    1.3766   -0.3007 H   0  0  0  0  0  0  0  0  0  0  0  0
   -9.6926    1.9942    1.2629 H   0  0  0  0  0  0  0  0  0  0  0  0
  -10.4532   -0.5935   -0.1453 H   0  0  0  0  0  0  0  0  0  0  0  0
  -11.4652    0.4578    0.8978 H   0  0  0  0  0  0  0  0  0  0  0  0
   -6.7799   -0.9355    7.0885 H   0  0  0  0  0  0  0  0  0  0  0  0
   -7.8431    0.2176    6.2899 H   0  0  0  0  0  0  0  0  0  0  0  0
   -7.5177   -0.2519    9.3008 H   0  0  0  0  0  0  0  0  0  0  0  0
   -7.1303    1.1889    8.3647 H   0  0  0  0  0  0  0  0  0  0  0  0
   -9.1692    1.5349    9.4542 H   0  0  0  0  0  0  0  0  0  0  0  0
  -11.8328    1.0494   11.6444 H   0  0  0  0  0  0  0  0  0  0  0  0
  -13.5660    4.7945   12.7071 H   0  0  0  0  0  0  0  0  0  0  0  0
  -15.7249    4.0858   11.7356 H   0  0  0  0  0  0  0  0  0  0  0  0
  -16.0385    1.3776    9.6579 H   0  0  0  0  0  0  0  0  0  0  0  0
  1  2  1  0
  2  3  1  0
  3  4  1  0
  4  5  1  0
  5  6  1  0
  6  7  1  0
  7  8  1  0
  8  9  2  0
  8 10  2  0
  8 11  1  0
 11 12  1  0
 12 13  2  0
 13 14  1  0
 14 15  2  0
 15 16  1  0
 16 17  2  0
 16 18  1  0
 18 19  1  0
 19 20  1  0
  7 21  1  0
 21 22  1  0
 22 23  1  0
  2 24  1  0
 24 25  2  0
 25 26  1  0
 26 27  1  0
 26 28  2  0
 28 29  1  0
 29 30  2  0
 30 31  1  0
 23  5  1  0
 30 24  1  0
 17 12  1  0
 20 15  1  0
  1 32  1  0
  1 33  1  0
  2 34  1  0
  3 35  1  0
  4 36  1  0
  4 37  1  0
  5 38  1  0
  6 39  1  0
  6 40  1  0
 11 41  1  0
 13 42  1  0
 14 43  1  0
 17 44  1  0
 19 45  1  0
 19 46  1  0
 20 47  1  0
 20 48  1  0
 21 49  1  0
 21 50  1  0
 22 51  1  0
 22 52  1  0
 23 53  1  0
 25 54  1  0
 28 55  1  0
 29 56  1  0
 31 57  1  0
M  END
>  <Energy>  (395) 
-93.204372860805734

>  <compound_id>  (395) 
1713

>  <target_id>  (395) 
1

>  <reference_id>  (395) 
17

>  <inspiration_ids>  (395) 
[17, 100]

>  <energy_score>  (395) 
-88.60739737956271

>  <distance_score>  (395) 
2.799225907462983

>  <path>  (395) 
/opt/xchem-fragalysis-2/maxwin/BulkDock/SCRATCH/505732/C1713-P17/C1713-P17.minimised.mol

>  <scratch_subdir>  (395) 
/opt/xchem-fragalysis-2/maxwin/BulkDock/SCRATCH/505732/C1713-P17

>  <fragmenstein_runtime>  (395) 
8.599528074264526

>  <fragmenstein_outcome>  (395) 
too moved

>  <fragmenstein_mode>  (395) 
expansion

>  <fragmenstein_error>  (395) 


$$$$
C1713-P100
     RDKit          3D

 57 60  0  0  0  0  0  0  0  0999 V2000
  -14.7500   -0.8297   11.0160 N   0  0  0  0  0  0  0  0  0  0  0  0
  -13.4606   -0.1759   10.8296 C   0  0  0  0  0  0  0  0  0  0  0  0
  -13.0356   -0.3803    9.4252 N   0  0  0  0  0  0  0  0  0  0  0  0
  -11.7775    0.3274    8.9393 C   0  0  0  0  0  0  0  0  0  0  0  0
  -10.3030   -0.2624    9.1671 C   0  0  0  0  0  0  0  0  0  0  0  0
   -9.9267   -1.4639    8.2497 C   0  0  0  0  0  0  0  0  0  0  0  0
   -9.0030   -1.2326    7.0999 N   0  0  0  0  0  0  0  0  0  0  0  0
   -8.5077   -2.6985    6.3897 S   0  0  0  0  0  0  0  0  0  0  0  0
   -7.3115   -3.1527    7.0617 O   0  0  0  0  0  0  0  0  0  0  0  0
   -9.6473   -3.5679    6.2430 O   0  0  0  0  0  0  0  0  0  0  0  0
   -8.0344   -2.1739    4.8609 N   0  0  0  0  0  0  0  0  0  0  0  0
   -8.9735   -1.4250    4.0830 C   0  0  0  0  0  0  0  0  0  0  0  0
  -10.2043   -1.9647    3.6780 C   0  0  0  0  0  0  0  0  0  0  0  0
  -11.0828   -1.2208    2.8834 C   0  0  0  0  0  0  0  0  0  0  0  0
  -10.6986    0.0506    2.5014 C   0  0  0  0  0  0  0  0  0  0  0  0
   -9.4675    0.5639    2.8789 C   0  0  0  0  0  0  0  0  0  0  0  0
   -8.5806   -0.1571    3.6505 C   0  0  0  0  0  0  0  0  0  0  0  0
   -9.2275    1.8249    2.3957 O   0  0  0  0  0  0  0  0  0  0  0  0
  -10.5251    2.2562    1.9212 C   0  0  0  0  0  0  0  0  0  0  0  0
  -11.3877    1.0271    1.6306 C   0  0  0  0  0  0  0  0  0  0  0  0
   -7.9034   -0.3132    7.4441 C   0  0  0  0  0  0  0  0  0  0  0  0
   -8.5094    0.9746    7.9929 C   0  0  0  0  0  0  0  0  0  0  0  0
   -9.2485    0.7884    9.2527 N   0  0  0  0  0  0  0  0  0  0  0  0
  -13.5865    1.2660   11.1775 C   0  0  0  0  0  0  0  0  0  0  0  0
  -12.5836    1.8374   11.9629 C   0  0  0  0  0  0  0  0  0  0  0  0
  -12.5000    3.2120   12.0399 C   0  0  0  0  0  0  0  0  0  0  0  0
  -10.8920    3.9850   12.6316 Br  0  0  0  0  0  0  0  0  0  0  0  0
  -13.5046    4.0132   11.5116 C   0  0  0  0  0  0  0  0  0  0  0  0
  -14.5588    3.4421   10.8054 C   0  0  0  0  0  0  0  0  0  0  0  0
  -14.5556    2.0830   10.5858 C   0  0  0  0  0  0  0  0  0  0  0  0
  -15.4505    1.5940    9.6742 O   0  0  0  0  0  0  0  0  0  0  0  0
  -15.5015   -0.1517   10.8869 H   0  0  0  0  0  0  0  0  0  0  0  0
  -14.8653   -1.4831   10.2378 H   0  0  0  0  0  0  0  0  0  0  0  0
  -12.7263   -0.6525   11.4870 H   0  0  0  0  0  0  0  0  0  0  0  0
  -12.9025   -1.3759    9.2589 H   0  0  0  0  0  0  0  0  0  0  0  0
  -11.7945    1.3619    9.2971 H   0  0  0  0  0  0  0  0  0  0  0  0
  -11.9026    0.4163    7.8520 H   0  0  0  0  0  0  0  0  0  0  0  0
  -10.3698   -0.6721   10.1844 H   0  0  0  0  0  0  0  0  0  0  0  0
   -9.3940   -2.1794    8.8803 H   0  0  0  0  0  0  0  0  0  0  0  0
  -10.8467   -1.8876    7.8357 H   0  0  0  0  0  0  0  0  0  0  0  0
   -7.7032   -2.9956    4.3566 H   0  0  0  0  0  0  0  0  0  0  0  0
  -10.4990   -2.9672    3.9820 H   0  0  0  0  0  0  0  0  0  0  0  0
  -12.0351   -1.6457    2.5833 H   0  0  0  0  0  0  0  0  0  0  0  0
   -7.6138    0.2533    3.9157 H   0  0  0  0  0  0  0  0  0  0  0  0
  -10.3959    2.8772    1.0287 H   0  0  0  0  0  0  0  0  0  0  0  0
  -10.9764    2.8796    2.7039 H   0  0  0  0  0  0  0  0  0  0  0  0
  -11.3042    0.7250    0.5818 H   0  0  0  0  0  0  0  0  0  0  0  0
  -12.4357    1.1934    1.8922 H   0  0  0  0  0  0  0  0  0  0  0  0
   -7.2375   -0.7618    8.1908 H   0  0  0  0  0  0  0  0  0  0  0  0
   -7.3143   -0.0760    6.5529 H   0  0  0  0  0  0  0  0  0  0  0  0
   -7.7107    1.7034    8.1667 H   0  0  0  0  0  0  0  0  0  0  0  0
   -9.1837    1.4217    7.2518 H   0  0  0  0  0  0  0  0  0  0  0  0
   -8.5751    0.5039    9.9652 H   0  0  0  0  0  0  0  0  0  0  0  0
  -11.7862    1.2249   12.3742 H   0  0  0  0  0  0  0  0  0  0  0  0
  -13.4421    5.0950   11.5962 H   0  0  0  0  0  0  0  0  0  0  0  0
  -15.3134    4.0731   10.3464 H   0  0  0  0  0  0  0  0  0  0  0  0
  -14.9546    0.9091    9.1746 H   0  0  0  0  0  0  0  0  0  0  0  0
  1  2  1  0
  2  3  1  0
  3  4  1  0
  4  5  1  0
  5  6  1  0
  6  7  1  0
  7  8  1  0
  8  9  2  0
  8 10  2  0
  8 11  1  0
 11 12  1  0
 12 13  2  0
 13 14  1  0
 14 15  2  0
 15 16  1  0
 16 17  2  0
 16 18  1  0
 18 19  1  0
 19 20  1  0
  7 21  1  0
 21 22  1  0
 22 23  1  0
  2 24  1  0
 24 25  2  0
 25 26  1  0
 26 27  1  0
 26 28  2  0
 28 29  1  0
 29 30  2  0
 30 31  1  0
 23  5  1  0
 30 24  1  0
 17 12  1  0
 20 15  1  0
  1 32  1  0
  1 33  1  0
  2 34  1  0
  3 35  1  0
  4 36  1  0
  4 37  1  0
  5 38  1  0
  6 39  1  0
  6 40  1  0
 11 41  1  0
 13 42  1  0
 14 43  1  0
 17 44  1  0
 19 45  1  0
 19 46  1  0
 20 47  1  0
 20 48  1  0
 21 49  1  0
 21 50  1  0
 22 51  1  0
 22 52  1  0
 23 53  1  0
 25 54  1  0
 28 55  1  0
 29 56  1  0
 31 57  1  0
M  END
>  <Energy>  (396) 
-93.749002953033923

>  <compound_id>  (396) 
1713

>  <target_id>  (396) 
1

>  <reference_id>  (396) 
100

>  <inspiration_ids>  (396) 
[17, 100]

>  <energy_score>  (396) 
-89.15202747178893

>  <distance_score>  (396) 
2.866420570735347

>  <path>  (396) 
/opt/xchem-fragalysis-2/maxwin/BulkDock/SCRATCH/505732/C1713-P100/C1713-P100.minimised.mol

>  <scratch_subdir>  (396) 
/opt/xchem-fragalysis-2/maxwin/BulkDock/SCRATCH/505732/C1713-P100

>  <fragmenstein_runtime>  (396) 
5.558607578277588

>  <fragmenstein_outcome>  (396) 
too moved

>  <fragmenstein_mode>  (396) 
expansion

>  <fragmenstein_error>  (396) 


$$$$
C1714-P17
     RDKit          3D

 49 51  0  0  0  0  0  0  0  0999 V2000
  -11.0041   -0.8235   11.6226 N   0  0  0  0  0  0  0  0  0  0  0  0
  -11.8321   -0.0193   11.7252 C   0  0  0  0  0  0  0  0  0  0  0  0
  -12.9458    0.8627   11.8350 C   0  0  0  0  0  0  0  0  0  0  0  0
  -13.7329    0.8058   12.9886 C   0  0  0  0  0  0  0  0  0  0  0  0
  -14.9703    1.4333   12.9967 C   0  0  0  0  0  0  0  0  0  0  0  0
  -16.1157    1.2663   14.4778 Br  0  0  0  0  0  0  0  0  0  0  0  0
  -15.4111    2.1388   11.8861 C   0  0  0  0  0  0  0  0  0  0  0  0
  -14.5904    2.2600   10.7705 C   0  0  0  0  0  0  0  0  0  0  0  0
  -13.3385    1.6537   10.7534 C   0  0  0  0  0  0  0  0  0  0  0  0
  -12.5166    1.7618    9.6677 O   0  0  0  0  0  0  0  0  0  0  0  0
  -12.3879    3.1065    9.1860 C   0  0  0  0  0  0  0  0  0  0  0  0
  -11.1431    3.2604    8.3209 C   0  0  0  0  0  0  0  0  0  0  0  0
   -9.8829    3.1922    9.1541 C   0  0  0  0  0  0  0  0  0  0  0  0
   -9.6252    1.8004    9.7138 C   0  0  0  0  0  0  0  0  0  0  0  0
   -8.5341    1.1127    8.9566 C   0  0  0  0  0  0  0  0  0  0  0  0
   -9.0210    0.8506    7.5595 C   0  0  0  0  0  0  0  0  0  0  0  0
   -8.7394    1.5453    6.6645 O   0  0  0  0  0  0  0  0  0  0  0  0
   -9.8056   -0.4827    7.5854 N   0  0  0  0  0  0  0  0  0  0  0  0
  -10.3233   -1.2863    6.5044 C   0  0  0  0  0  0  0  0  0  0  0  0
   -9.0036   -1.8810    6.0301 C   0  0  0  0  0  0  0  0  0  0  0  0
   -8.6602   -3.1496    6.3581 C   0  0  0  0  0  0  0  0  0  0  0  0
   -7.2510   -3.4744    6.5818 C   0  0  0  0  0  0  0  0  0  0  0  0
   -6.3513   -2.4867    6.6628 C   0  0  0  0  0  0  0  0  0  0  0  0
   -4.9979   -2.3340    7.0586 C   0  0  0  0  0  0  0  0  0  0  0  0
   -4.7738   -1.0107    7.0105 C   0  0  0  0  0  0  0  0  0  0  0  0
   -5.8286   -0.2478    6.5331 N   0  0  0  0  0  0  0  0  0  0  0  0
   -6.7662   -1.1202    6.2686 C   0  0  0  0  0  0  0  0  0  0  0  0
   -7.9992   -0.9460    5.7125 N   0  0  0  0  0  0  0  0  0  0  0  0
  -13.4065    0.2205   13.8439 H   0  0  0  0  0  0  0  0  0  0  0  0
  -16.3901    2.6124   11.8798 H   0  0  0  0  0  0  0  0  0  0  0  0
  -14.9570    2.8194    9.9146 H   0  0  0  0  0  0  0  0  0  0  0  0
  -12.3552    3.8253   10.0159 H   0  0  0  0  0  0  0  0  0  0  0  0
  -13.2572    3.3354    8.5582 H   0  0  0  0  0  0  0  0  0  0  0  0
  -11.1416    2.4998    7.5346 H   0  0  0  0  0  0  0  0  0  0  0  0
  -11.1824    4.2390    7.8281 H   0  0  0  0  0  0  0  0  0  0  0  0
   -9.9775    3.8949    9.9925 H   0  0  0  0  0  0  0  0  0  0  0  0
   -9.0317    3.5552    8.5656 H   0  0  0  0  0  0  0  0  0  0  0  0
  -10.4866    1.1471    9.6872 H   0  0  0  0  0  0  0  0  0  0  0  0
   -9.3404    1.8865   10.7659 H   0  0  0  0  0  0  0  0  0  0  0  0
   -7.6253    1.7180    8.8842 H   0  0  0  0  0  0  0  0  0  0  0  0
   -8.2400    0.1760    9.4434 H   0  0  0  0  0  0  0  0  0  0  0  0
   -9.7967   -0.8637    8.5282 H   0  0  0  0  0  0  0  0  0  0  0  0
  -11.0313   -2.0195    6.8961 H   0  0  0  0  0  0  0  0  0  0  0  0
  -10.7731   -0.6495    5.7393 H   0  0  0  0  0  0  0  0  0  0  0  0
   -9.3941   -3.8564    6.7279 H   0  0  0  0  0  0  0  0  0  0  0  0
   -7.0117   -4.4956    6.8425 H   0  0  0  0  0  0  0  0  0  0  0  0
   -4.3134   -3.0982    7.3741 H   0  0  0  0  0  0  0  0  0  0  0  0
   -3.8449   -0.5268    7.2875 H   0  0  0  0  0  0  0  0  0  0  0  0
   -8.2924    0.0267    5.6322 H   0  0  0  0  0  0  0  0  0  0  0  0
  1  2  3  0
  2  3  1  0
  3  4  2  0
  4  5  1  0
  5  6  1  0
  5  7  2  0
  7  8  1  0
  8  9  2  0
  9 10  1  0
 10 11  1  0
 11 12  1  0
 12 13  1  0
 13 14  1  0
 14 15  1  0
 15 16  1  0
 16 17  2  0
 16 18  1  0
 18 19  1  0
 19 20  1  0
 20 21  2  0
 21 22  1  0
 22 23  2  0
 23 24  1  0
 24 25  2  0
 25 26  1  0
 26 27  2  0
 27 28  1  0
  9  3  1  0
 28 20  1  0
 27 23  1  0
  4 29  1  0
  7 30  1  0
  8 31  1  0
 11 32  1  0
 11 33  1  0
 12 34  1  0
 12 35  1  0
 13 36  1  0
 13 37  1  0
 14 38  1  0
 14 39  1  0
 15 40  1  0
 15 41  1  0
 18 42  1  0
 19 43  1  0
 19 44  1  0
 21 45  1  0
 22 46  1  0
 24 47  1  0
 25 48  1  0
 28 49  1  0
M  END
>  <Energy>  (397) 
78.900899542523661

>  <compound_id>  (397) 
1714

>  <target_id>  (397) 
1

>  <reference_id>  (397) 
17

>  <inspiration_ids>  (397) 
[17, 126]

>  <energy_score>  (397) 
3.1485119068142353

>  <distance_score>  (397) 
2.0190708795990764

>  <path>  (397) 
/opt/xchem-fragalysis-2/maxwin/BulkDock/SCRATCH/505732/C1714-P17/C1714-P17.minimised.mol

>  <scratch_subdir>  (397) 
/opt/xchem-fragalysis-2/maxwin/BulkDock/SCRATCH/505732/C1714-P17

>  <fragmenstein_runtime>  (397) 
14.249918937683105

>  <fragmenstein_outcome>  (397) 
too moved

>  <fragmenstein_mode>  (397) 
expansion

>  <fragmenstein_error>  (397) 


$$$$
C1714-P126
     RDKit          3D

 49 51  0  0  0  0  0  0  0  0999 V2000
  -10.5384    3.8599   13.0082 N   0  0  0  0  0  0  0  0  0  0  0  0
  -11.4038    3.1532   12.6866 C   0  0  0  0  0  0  0  0  0  0  0  0
  -12.4345    2.2376   12.2924 C   0  0  0  0  0  0  0  0  0  0  0  0
  -13.6138    2.2097   13.0531 C   0  0  0  0  0  0  0  0  0  0  0  0
  -14.6194    1.2846   12.7905 C   0  0  0  0  0  0  0  0  0  0  0  0
  -16.1636    1.2583   13.8749 Br  0  0  0  0  0  0  0  0  0  0  0  0
  -14.4777    0.3763   11.7551 C   0  0  0  0  0  0  0  0  0  0  0  0
  -13.3120    0.3993   10.9921 C   0  0  0  0  0  0  0  0  0  0  0  0
  -12.2943    1.3387   11.2322 C   0  0  0  0  0  0  0  0  0  0  0  0
  -11.2375    1.2044   10.3803 O   0  0  0  0  0  0  0  0  0  0  0  0
  -10.4536    2.3541   10.0465 C   0  0  0  0  0  0  0  0  0  0  0  0
   -9.8167    2.0965    8.6869 C   0  0  0  0  0  0  0  0  0  0  0  0
  -10.6140    2.6161    7.4884 C   0  0  0  0  0  0  0  0  0  0  0  0
  -12.1261    2.3604    7.4696 C   0  0  0  0  0  0  0  0  0  0  0  0
  -12.5775    0.9066    7.4394 C   0  0  0  0  0  0  0  0  0  0  0  0
  -12.1140    0.1905    6.1840 C   0  0  0  0  0  0  0  0  0  0  0  0
  -12.1057    0.6882    5.1303 O   0  0  0  0  0  0  0  0  0  0  0  0
  -11.6025   -1.1946    6.6417 N   0  0  0  0  0  0  0  0  0  0  0  0
  -10.8933   -2.2092    5.9205 C   0  0  0  0  0  0  0  0  0  0  0  0
   -9.4479   -2.1071    6.3439 C   0  0  0  0  0  0  0  0  0  0  0  0
   -8.6454   -3.1964    6.3662 C   0  0  0  0  0  0  0  0  0  0  0  0
   -7.2527   -3.0738    6.7699 C   0  0  0  0  0  0  0  0  0  0  0  0
   -6.7754   -1.8900    7.1636 C   0  0  0  0  0  0  0  0  0  0  0  0
   -5.5243   -1.3924    7.5940 C   0  0  0  0  0  0  0  0  0  0  0  0
   -5.7446   -0.0949    7.8337 C   0  0  0  0  0  0  0  0  0  0  0  0
   -7.0289    0.3580    7.5807 N   0  0  0  0  0  0  0  0  0  0  0  0
   -7.6708   -0.7074    7.1745 C   0  0  0  0  0  0  0  0  0  0  0  0
   -8.9563   -0.8638    6.7626 N   0  0  0  0  0  0  0  0  0  0  0  0
  -13.7516    2.9158   13.8646 H   0  0  0  0  0  0  0  0  0  0  0  0
  -15.2518   -0.3548   11.5358 H   0  0  0  0  0  0  0  0  0  0  0  0
  -13.1967   -0.3296   10.1934 H   0  0  0  0  0  0  0  0  0  0  0  0
   -9.6571    2.4362   10.7880 H   0  0  0  0  0  0  0  0  0  0  0  0
  -11.0432    3.2771   10.0270 H   0  0  0  0  0  0  0  0  0  0  0  0
   -8.8336    2.5805    8.6546 H   0  0  0  0  0  0  0  0  0  0  0  0
   -9.6536    1.0221    8.5718 H   0  0  0  0  0  0  0  0  0  0  0  0
  -10.4745    3.7049    7.4476 H   0  0  0  0  0  0  0  0  0  0  0  0
  -10.1598    2.2291    6.5686 H   0  0  0  0  0  0  0  0  0  0  0  0
  -12.5909    2.8520    8.3322 H   0  0  0  0  0  0  0  0  0  0  0  0
  -12.5355    2.8734    6.5891 H   0  0  0  0  0  0  0  0  0  0  0  0
  -12.2147    0.4026    8.3299 H   0  0  0  0  0  0  0  0  0  0  0  0
  -13.6721    0.8561    7.4562 H   0  0  0  0  0  0  0  0  0  0  0  0
  -11.6922   -1.2732    7.6484 H   0  0  0  0  0  0  0  0  0  0  0  0
  -11.3209   -3.1751    6.1946 H   0  0  0  0  0  0  0  0  0  0  0  0
  -10.9961   -2.0205    4.8487 H   0  0  0  0  0  0  0  0  0  0  0  0
   -9.0039   -4.1761    6.0632 H   0  0  0  0  0  0  0  0  0  0  0  0
   -6.6298   -3.9581    6.7275 H   0  0  0  0  0  0  0  0  0  0  0  0
   -4.5987   -1.9245    7.7050 H   0  0  0  0  0  0  0  0  0  0  0  0
   -4.9930    0.5835    8.1989 H   0  0  0  0  0  0  0  0  0  0  0  0
   -9.5560   -0.0616    6.6456 H   0  0  0  0  0  0  0  0  0  0  0  0
  1  2  3  0
  2  3  1  0
  3  4  2  0
  4  5  1  0
  5  6  1  0
  5  7  2  0
  7  8  1  0
  8  9  2  0
  9 10  1  0
 10 11  1  0
 11 12  1  0
 12 13  1  0
 13 14  1  0
 14 15  1  0
 15 16  1  0
 16 17  2  0
 16 18  1  0
 18 19  1  0
 19 20  1  0
 20 21  2  0
 21 22  1  0
 22 23  2  0
 23 24  1  0
 24 25  2  0
 25 26  1  0
 26 27  2  0
 27 28  1  0
  9  3  1  0
 28 20  1  0
 27 23  1  0
  4 29  1  0
  7 30  1  0
  8 31  1  0
 11 32  1  0
 11 33  1  0
 12 34  1  0
 12 35  1  0
 13 36  1  0
 13 37  1  0
 14 38  1  0
 14 39  1  0
 15 40  1  0
 15 41  1  0
 18 42  1  0
 19 43  1  0
 19 44  1  0
 21 45  1  0
 22 46  1  0
 24 47  1  0
 25 48  1  0
 28 49  1  0
M  END
>  <Energy>  (398) 
59.032893765746138

>  <compound_id>  (398) 
1714

>  <target_id>  (398) 
1

>  <reference_id>  (398) 
126

>  <inspiration_ids>  (398) 
[17, 126]

>  <energy_score>  (398) 
-16.719493869963458

>  <distance_score>  (398) 
1.1978134258294098

>  <path>  (398) 
/opt/xchem-fragalysis-2/maxwin/BulkDock/SCRATCH/505732/C1714-P126/C1714-P126.minimised.mol

>  <scratch_subdir>  (398) 
/opt/xchem-fragalysis-2/maxwin/BulkDock/SCRATCH/505732/C1714-P126

>  <fragmenstein_runtime>  (398) 
13.06593108177185

>  <fragmenstein_outcome>  (398) 
too moved

>  <fragmenstein_mode>  (398) 
expansion

>  <fragmenstein_error>  (398) 


$$$$
C1715-P17
     RDKit          3D

 53 56  0  0  0  0  0  0  0  0999 V2000
   -7.9227   -2.8621    3.9402 N   0  0  0  0  0  0  0  0  0  0  0  0
   -8.5280   -1.6913    4.5464 C   0  0  0  0  0  0  0  0  0  0  0  0
   -9.9310   -1.9638    4.3894 N   0  0  0  0  0  0  0  0  0  0  0  0
  -10.8700   -0.8490    4.3367 C   0  0  0  0  0  0  0  0  0  0  0  0
  -10.9639    0.0911    5.5163 C   0  0  0  0  0  0  0  0  0  0  0  0
  -10.2883    1.4985    5.3893 C   0  0  0  0  0  0  0  0  0  0  0  0
  -11.5434    2.1090    6.0335 C   0  0  0  0  0  0  0  0  0  0  0  0
  -11.9438    3.4027    5.4947 N   0  0  0  0  0  0  0  0  0  0  0  0
  -12.1792    3.8559    4.0238 C   0  0  0  0  0  0  0  0  0  0  0  0
  -12.1626    3.2402    3.0295 O   0  0  0  0  0  0  0  0  0  0  0  0
  -12.5515    5.3333    4.0677 C   0  0  0  0  0  0  0  0  0  0  0  0
  -11.2027    6.2793    4.7250 Cl  0  0  0  0  0  0  0  0  0  0  0  0
  -11.5635    2.1765    7.6025 C   0  0  0  0  0  0  0  0  0  0  0  0
  -11.5685    3.2890    8.3109 N   0  0  0  0  0  0  0  0  0  0  0  0
  -12.1677    2.9942    9.5234 N   0  0  0  0  0  0  0  0  0  0  0  0
  -12.5202    1.7273    9.4780 C   0  0  0  0  0  0  0  0  0  0  0  0
  -13.5316    1.0775   10.2365 C   0  0  0  0  0  0  0  0  0  0  0  0
  -13.7660    1.1472   11.5897 C   0  0  0  0  0  0  0  0  0  0  0  0
  -14.9083    0.3838   11.9725 C   0  0  0  0  0  0  0  0  0  0  0  0
  -15.5142   -0.2250   10.8972 C   0  0  0  0  0  0  0  0  0  0  0  0
  -14.7093    0.1172    9.4354 S   0  0  0  0  0  0  0  0  0  0  0  0
  -11.9039    1.1337    8.4157 N   0  0  0  0  0  0  0  0  0  0  0  0
  -12.3147    0.8860    5.4685 C   0  0  0  0  0  0  0  0  0  0  0  0
   -8.1425   -1.5688    5.9998 C   0  0  0  0  0  0  0  0  0  0  0  0
   -7.7918   -0.3072    6.5042 C   0  0  0  0  0  0  0  0  0  0  0  0
   -7.9328   -0.0503    7.8598 C   0  0  0  0  0  0  0  0  0  0  0  0
   -7.9620    1.7253    8.4668 Br  0  0  0  0  0  0  0  0  0  0  0  0
   -8.2484   -1.0708    8.7368 C   0  0  0  0  0  0  0  0  0  0  0  0
   -8.4189   -2.3652    8.2537 C   0  0  0  0  0  0  0  0  0  0  0  0
   -8.3616   -2.6185    6.8985 C   0  0  0  0  0  0  0  0  0  0  0  0
   -8.6115   -3.8975    6.4967 O   0  0  0  0  0  0  0  0  0  0  0  0
   -8.3634   -2.9279    3.0235 H   0  0  0  0  0  0  0  0  0  0  0  0
   -6.9405   -2.6508    3.7744 H   0  0  0  0  0  0  0  0  0  0  0  0
   -8.2260   -0.8084    3.9707 H   0  0  0  0  0  0  0  0  0  0  0  0
  -10.2440   -2.6556    5.0731 H   0  0  0  0  0  0  0  0  0  0  0  0
  -10.6818   -0.2853    3.4141 H   0  0  0  0  0  0  0  0  0  0  0  0
  -11.8537   -1.3089    4.1805 H   0  0  0  0  0  0  0  0  0  0  0  0
  -10.8108   -0.4107    6.4771 H   0  0  0  0  0  0  0  0  0  0  0  0
   -9.3726    1.6904    5.9357 H   0  0  0  0  0  0  0  0  0  0  0  0
  -10.1097    1.8107    4.3519 H   0  0  0  0  0  0  0  0  0  0  0  0
  -11.9510    4.2183    6.1085 H   0  0  0  0  0  0  0  0  0  0  0  0
  -13.4376    5.4802    4.6915 H   0  0  0  0  0  0  0  0  0  0  0  0
  -12.7602    5.6900    3.0553 H   0  0  0  0  0  0  0  0  0  0  0  0
  -13.1521    1.7241   12.2730 H   0  0  0  0  0  0  0  0  0  0  0  0
  -15.2737    0.2988   12.9885 H   0  0  0  0  0  0  0  0  0  0  0  0
  -16.3934   -0.8528   10.9052 H   0  0  0  0  0  0  0  0  0  0  0  0
  -12.0633    0.1777    8.1358 H   0  0  0  0  0  0  0  0  0  0  0  0
  -12.7177    1.0327    4.4579 H   0  0  0  0  0  0  0  0  0  0  0  0
  -13.1250    0.4718    6.0765 H   0  0  0  0  0  0  0  0  0  0  0  0
   -7.5753    0.5056    5.8162 H   0  0  0  0  0  0  0  0  0  0  0  0
   -8.3998   -0.8516    9.7878 H   0  0  0  0  0  0  0  0  0  0  0  0
   -8.6863   -3.1772    8.9211 H   0  0  0  0  0  0  0  0  0  0  0  0
   -8.4299   -3.9490    5.5307 H   0  0  0  0  0  0  0  0  0  0  0  0
  1  2  1  0
  2  3  1  0
  3  4  1  0
  4  5  1  0
  5  6  1  0
  6  7  1  0
  7  8  1  0
  8  9  1  0
  9 10  2  0
  9 11  1  0
 11 12  1  0
  7 13  1  0
 13 14  2  0
 14 15  1  0
 15 16  2  0
 16 17  1  0
 17 18  2  0
 18 19  1  0
 19 20  2  0
 20 21  1  0
 16 22  1  0
  7 23  1  0
  2 24  1  0
 24 25  2  0
 25 26  1  0
 26 27  1  0
 26 28  2  0
 28 29  1  0
 29 30  2  0
 30 31  1  0
 23  5  1  0
 30 24  1  0
 22 13  1  0
 21 17  1  0
  1 32  1  0
  1 33  1  0
  2 34  1  0
  3 35  1  0
  4 36  1  0
  4 37  1  0
  5 38  1  0
  6 39  1  0
  6 40  1  0
  8 41  1  0
 11 42  1  0
 11 43  1  0
 18 44  1  0
 19 45  1  0
 20 46  1  0
 22 47  1  0
 23 48  1  0
 23 49  1  0
 25 50  1  0
 28 51  1  0
 29 52  1  0
 31 53  1  0
M  END
>  <Energy>  (399) 
-17.622986886624446

>  <compound_id>  (399) 
1715

>  <target_id>  (399) 
1

>  <reference_id>  (399) 
17

>  <inspiration_ids>  (399) 
[17, 127]

>  <energy_score>  (399) 
-48.0159681053176

>  <distance_score>  (399) 
1.9279492687622426

>  <path>  (399) 
/opt/xchem-fragalysis-2/maxwin/BulkDock/SCRATCH/505732/C1715-P17/C1715-P17.minimised.mol

>  <scratch_subdir>  (399) 
/opt/xchem-fragalysis-2/maxwin/BulkDock/SCRATCH/505732/C1715-P17

>  <fragmenstein_runtime>  (399) 
67.66916251182556

>  <fragmenstein_outcome>  (399) 
too moved

>  <fragmenstein_mode>  (399) 
expansion

>  <fragmenstein_error>  (399) 


$$$$
C1715-P127
     RDKit          3D

 53 56  0  0  0  0  0  0  0  0999 V2000
  -10.3365   -2.3091    3.8446 N   0  0  0  0  0  0  0  0  0  0  0  0
  -10.0211   -1.0865    4.5456 C   0  0  0  0  0  0  0  0  0  0  0  0
  -11.3020   -0.6334    5.0327 N   0  0  0  0  0  0  0  0  0  0  0  0
  -11.4066    0.7971    5.2884 C   0  0  0  0  0  0  0  0  0  0  0  0
  -11.2372    1.2299    6.7275 C   0  0  0  0  0  0  0  0  0  0  0  0
   -9.8367    1.4883    7.3351 C   0  0  0  0  0  0  0  0  0  0  0  0
  -10.3899    2.7245    8.0559 C   0  0  0  0  0  0  0  0  0  0  0  0
   -9.5084    3.8782    8.1180 N   0  0  0  0  0  0  0  0  0  0  0  0
   -8.5232    4.4561    7.0590 C   0  0  0  0  0  0  0  0  0  0  0  0
   -8.3295    4.1366    5.9503 O   0  0  0  0  0  0  0  0  0  0  0  0
   -7.7214    5.5537    7.7496 C   0  0  0  0  0  0  0  0  0  0  0  0
   -8.8036    6.8468    8.3005 Cl  0  0  0  0  0  0  0  0  0  0  0  0
  -10.9872    2.4361    9.4606 C   0  0  0  0  0  0  0  0  0  0  0  0
  -11.2862    3.3500   10.3610 N   0  0  0  0  0  0  0  0  0  0  0  0
  -12.3247    2.8362   11.1142 N   0  0  0  0  0  0  0  0  0  0  0  0
  -12.6069    1.6536   10.6109 C   0  0  0  0  0  0  0  0  0  0  0  0
  -13.8388    0.9559   10.6919 C   0  0  0  0  0  0  0  0  0  0  0  0
  -14.6259    0.7653   11.8023 C   0  0  0  0  0  0  0  0  0  0  0  0
  -15.8347    0.0798   11.4865 C   0  0  0  0  0  0  0  0  0  0  0  0
  -15.9389   -0.1893   10.1411 C   0  0  0  0  0  0  0  0  0  0  0  0
  -14.5616    0.3148    9.2751 S   0  0  0  0  0  0  0  0  0  0  0  0
  -11.5732    1.2569    9.8174 N   0  0  0  0  0  0  0  0  0  0  0  0
  -11.4801    2.7636    6.9475 C   0  0  0  0  0  0  0  0  0  0  0  0
   -9.0029   -1.2851    5.6450 C   0  0  0  0  0  0  0  0  0  0  0  0
   -7.9507   -0.3619    5.7626 C   0  0  0  0  0  0  0  0  0  0  0  0
   -7.1614   -0.3595    6.8997 C   0  0  0  0  0  0  0  0  0  0  0  0
   -6.1851    1.1824    7.3342 Br  0  0  0  0  0  0  0  0  0  0  0  0
   -7.2487   -1.3909    7.8145 C   0  0  0  0  0  0  0  0  0  0  0  0
   -8.2314   -2.3639    7.6719 C   0  0  0  0  0  0  0  0  0  0  0  0
   -9.1490   -2.2567    6.6425 C   0  0  0  0  0  0  0  0  0  0  0  0
  -10.2693   -3.0360    6.6763 O   0  0  0  0  0  0  0  0  0  0  0  0
  -10.5669   -3.0042    4.5605 H   0  0  0  0  0  0  0  0  0  0  0  0
  -11.2314   -2.1313    3.3915 H   0  0  0  0  0  0  0  0  0  0  0  0
   -9.6287   -0.3970    3.7887 H   0  0  0  0  0  0  0  0  0  0  0  0
  -11.5920   -1.2063    5.8219 H   0  0  0  0  0  0  0  0  0  0  0  0
  -12.4223    1.0753    4.9793 H   0  0  0  0  0  0  0  0  0  0  0  0
  -10.7452    1.3702    4.6263 H   0  0  0  0  0  0  0  0  0  0  0  0
  -11.8915    0.6150    7.3535 H   0  0  0  0  0  0  0  0  0  0  0  0
   -9.4610    0.7005    7.9896 H   0  0  0  0  0  0  0  0  0  0  0  0
   -9.0939    1.7514    6.5819 H   0  0  0  0  0  0  0  0  0  0  0  0
   -9.4766    4.4508    8.9616 H   0  0  0  0  0  0  0  0  0  0  0  0
   -7.0042    5.9830    7.0446 H   0  0  0  0  0  0  0  0  0  0  0  0
   -7.1812    5.1412    8.6062 H   0  0  0  0  0  0  0  0  0  0  0  0
  -14.3548    1.1158   12.7922 H   0  0  0  0  0  0  0  0  0  0  0  0
  -16.6049   -0.1732   12.2056 H   0  0  0  0  0  0  0  0  0  0  0  0
  -16.7549   -0.6634    9.6176 H   0  0  0  0  0  0  0  0  0  0  0  0
  -11.5530    0.3900    9.3043 H   0  0  0  0  0  0  0  0  0  0  0  0
  -11.2210    3.3901    6.0842 H   0  0  0  0  0  0  0  0  0  0  0  0
  -12.4939    3.0300    7.2638 H   0  0  0  0  0  0  0  0  0  0  0  0
   -7.8610    0.4432    5.0351 H   0  0  0  0  0  0  0  0  0  0  0  0
   -6.5833   -1.3921    8.6667 H   0  0  0  0  0  0  0  0  0  0  0  0
   -8.3366   -3.1625    8.3949 H   0  0  0  0  0  0  0  0  0  0  0  0
  -10.5478   -3.1159    7.6158 H   0  0  0  0  0  0  0  0  0  0  0  0
  1  2  1  0
  2  3  1  0
  3  4  1  0
  4  5  1  0
  5  6  1  0
  6  7  1  0
  7  8  1  0
  8  9  1  0
  9 10  2  0
  9 11  1  0
 11 12  1  0
  7 13  1  0
 13 14  2  0
 14 15  1  0
 15 16  2  0
 16 17  1  0
 17 18  2  0
 18 19  1  0
 19 20  2  0
 20 21  1  0
 16 22  1  0
  7 23  1  0
  2 24  1  0
 24 25  2  0
 25 26  1  0
 26 27  1  0
 26 28  2  0
 28 29  1  0
 29 30  2  0
 30 31  1  0
 23  5  1  0
 30 24  1  0
 22 13  1  0
 21 17  1  0
  1 32  1  0
  1 33  1  0
  2 34  1  0
  3 35  1  0
  4 36  1  0
  4 37  1  0
  5 38  1  0
  6 39  1  0
  6 40  1  0
  8 41  1  0
 11 42  1  0
 11 43  1  0
 18 44  1  0
 19 45  1  0
 20 46  1  0
 22 47  1  0
 23 48  1  0
 23 49  1  0
 25 50  1  0
 28 51  1  0
 29 52  1  0
 31 53  1  0
M  END
>  <Energy>  (400) 
-6.8010050066435443

>  <compound_id>  (400) 
1715

>  <target_id>  (400) 
1

>  <reference_id>  (400) 
127

>  <inspiration_ids>  (400) 
[17, 127]

>  <energy_score>  (400) 
-37.19398622533595

>  <distance_score>  (400) 
1.996157741312448

>  <path>  (400) 
/opt/xchem-fragalysis-2/maxwin/BulkDock/SCRATCH/505732/C1715-P127/C1715-P127.minimised.mol

>  <scratch_subdir>  (400) 
/opt/xchem-fragalysis-2/maxwin/BulkDock/SCRATCH/505732/C1715-P127

>  <fragmenstein_runtime>  (400) 
67.33583617210388

>  <fragmenstein_outcome>  (400) 
too moved

>  <fragmenstein_mode>  (400) 
expansion

>  <fragmenstein_error>  (400) 


$$$$
C1718-P17
     RDKit          3D

 53 55  0  0  0  0  0  0  0  0999 V2000
   -4.3332   -1.3779    5.4249 C   0  0  0  0  0  0  0  0  0  0  0  0
   -4.5414   -0.0636    6.0593 N   0  0  0  0  0  0  0  0  0  0  0  0
   -5.0351   -0.1133    7.4597 C   0  0  0  0  0  0  0  0  0  0  0  0
   -6.2645   -1.0256    7.6388 C   0  0  0  0  0  0  0  0  0  0  0  0
   -6.9757   -0.7889    8.9098 N   0  0  0  0  0  0  0  0  0  0  0  0
   -8.2894   -0.2555    8.8462 C   0  0  0  0  0  0  0  0  0  0  0  0
   -8.4316    1.1048    9.1174 C   0  0  0  0  0  0  0  0  0  0  0  0
   -9.6742    1.7301    9.1839 C   0  0  0  0  0  0  0  0  0  0  0  0
   -9.8026    3.5966    9.4597 Br  0  0  0  0  0  0  0  0  0  0  0  0
  -10.8306    1.0033    9.0156 C   0  0  0  0  0  0  0  0  0  0  0  0
  -10.7210   -0.3386    8.6824 C   0  0  0  0  0  0  0  0  0  0  0  0
  -11.8918   -1.0269    8.5060 O   0  0  0  0  0  0  0  0  0  0  0  0
   -9.4586   -0.9749    8.5224 C   0  0  0  0  0  0  0  0  0  0  0  0
   -9.3046   -2.3283    7.8927 C   0  0  0  0  0  0  0  0  0  0  0  0
   -8.2890   -3.0045    7.9390 O   0  0  0  0  0  0  0  0  0  0  0  0
  -10.3739   -2.7111    7.1678 O   0  0  0  0  0  0  0  0  0  0  0  0
   -5.0952    1.1960    5.0336 S   0  0  0  0  0  0  0  0  0  0  0  0
   -4.8795    2.4509    5.7275 O   0  0  0  0  0  0  0  0  0  0  0  0
   -4.5991    0.9229    3.7022 O   0  0  0  0  0  0  0  0  0  0  0  0
   -6.8137    0.9372    4.9991 C   0  0  0  0  0  0  0  0  0  0  0  0
   -7.5439    1.7637    6.0263 C   0  0  0  0  0  0  0  0  0  0  0  0
   -8.9593    1.4116    5.6959 C   0  0  0  0  0  0  0  0  0  0  0  0
   -8.9524    1.3383    4.2192 N   0  0  0  0  0  0  0  0  0  0  0  0
   -9.6540    0.1604    3.6950 C   0  0  0  0  0  0  0  0  0  0  0  0
  -11.0253    0.0817    4.2369 C   0  0  0  0  0  0  0  0  0  0  0  0
  -11.6185   -1.0031    4.8383 C   0  0  0  0  0  0  0  0  0  0  0  0
  -12.8814   -0.7032    5.2257 O   0  0  0  0  0  0  0  0  0  0  0  0
  -13.1780    0.5946    4.8465 N   0  0  0  0  0  0  0  0  0  0  0  0
  -12.0759    1.0317    4.2310 C   0  0  0  0  0  0  0  0  0  0  0  0
  -11.9921    2.7429    3.4492 Br  0  0  0  0  0  0  0  0  0  0  0  0
   -7.5415    1.3644    3.7580 C   0  0  0  0  0  0  0  0  0  0  0  0
   -5.2656   -1.7771    5.0173 H   0  0  0  0  0  0  0  0  0  0  0  0
   -3.9419   -2.0914    6.1565 H   0  0  0  0  0  0  0  0  0  0  0  0
   -3.5930   -1.2954    4.6246 H   0  0  0  0  0  0  0  0  0  0  0  0
   -5.2459    0.9004    7.8118 H   0  0  0  0  0  0  0  0  0  0  0  0
   -4.2182   -0.4717    8.0991 H   0  0  0  0  0  0  0  0  0  0  0  0
   -6.9641   -0.9779    6.8096 H   0  0  0  0  0  0  0  0  0  0  0  0
   -5.8985   -2.0603    7.6460 H   0  0  0  0  0  0  0  0  0  0  0  0
   -7.1200   -1.7299    9.2954 H   0  0  0  0  0  0  0  0  0  0  0  0
   -7.5347    1.6952    9.2432 H   0  0  0  0  0  0  0  0  0  0  0  0
  -11.7975    1.4887    9.1034 H   0  0  0  0  0  0  0  0  0  0  0  0
  -12.6545   -0.4216    8.5608 H   0  0  0  0  0  0  0  0  0  0  0  0
  -11.1851   -2.4267    7.6555 H   0  0  0  0  0  0  0  0  0  0  0  0
   -6.9785   -0.1378    5.0893 H   0  0  0  0  0  0  0  0  0  0  0  0
   -7.2415    1.5324    7.0351 H   0  0  0  0  0  0  0  0  0  0  0  0
   -7.3791    2.8410    5.8868 H   0  0  0  0  0  0  0  0  0  0  0  0
   -9.2068    0.4460    6.1429 H   0  0  0  0  0  0  0  0  0  0  0  0
   -9.6662    2.1653    6.0536 H   0  0  0  0  0  0  0  0  0  0  0  0
   -9.1049   -0.7592    3.9373 H   0  0  0  0  0  0  0  0  0  0  0  0
   -9.7105    0.2241    2.6012 H   0  0  0  0  0  0  0  0  0  0  0  0
  -11.2929   -2.0106    5.0509 H   0  0  0  0  0  0  0  0  0  0  0  0
   -7.3444    0.7125    2.8994 H   0  0  0  0  0  0  0  0  0  0  0  0
   -7.2775    2.3865    3.4596 H   0  0  0  0  0  0  0  0  0  0  0  0
  1  2  1  0
  2  3  1  0
  3  4  1  0
  4  5  1  0
  5  6  1  0
  6  7  2  0
  7  8  1  0
  8  9  1  0
  8 10  2  0
 10 11  1  0
 11 12  1  0
 11 13  2  0
 13 14  1  0
 14 15  2  0
 14 16  1  0
  2 17  1  0
 17 18  2  0
 17 19  2  0
 17 20  1  0
 20 21  1  0
 21 22  1  0
 22 23  1  0
 23 24  1  0
 24 25  1  0
 25 26  2  0
 26 27  1  0
 27 28  1  0
 28 29  2  0
 29 30  1  0
 23 31  1  0
 13  6  1  0
 31 20  1  0
 29 25  1  0
  1 32  1  0
  1 33  1  0
  1 34  1  0
  3 35  1  0
  3 36  1  0
  4 37  1  0
  4 38  1  0
  5 39  1  0
  7 40  1  0
 10 41  1  0
 12 42  1  0
 16 43  1  0
 20 44  1  0
 21 45  1  0
 21 46  1  0
 22 47  1  0
 22 48  1  0
 24 49  1  0
 24 50  1  0
 26 51  1  0
 31 52  1  0
 31 53  1  0
M  END
>  <Energy>  (401) 
18.804490758621697

>  <compound_id>  (401) 
1718

>  <target_id>  (401) 
1

>  <reference_id>  (401) 
17

>  <inspiration_ids>  (401) 
[17, 179]

>  <energy_score>  (401) 
-70.03543199477605

>  <distance_score>  (401) 
3.0823705625695257

>  <path>  (401) 
/opt/xchem-fragalysis-2/maxwin/BulkDock/SCRATCH/505732/C1718-P17/C1718-P17.minimised.mol

>  <scratch_subdir>  (401) 
/opt/xchem-fragalysis-2/maxwin/BulkDock/SCRATCH/505732/C1718-P17

>  <fragmenstein_runtime>  (401) 
4.219695568084717

>  <fragmenstein_outcome>  (401) 
too moved

>  <fragmenstein_mode>  (401) 
expansion

>  <fragmenstein_error>  (401) 


$$$$
C1718-P179
     RDKit          3D

 53 55  0  0  0  0  0  0  0  0999 V2000
   -4.4058   -1.0931    5.2853 C   0  0  0  0  0  0  0  0  0  0  0  0
   -5.0910   -1.0307    6.5801 N   0  0  0  0  0  0  0  0  0  0  0  0
   -6.3860   -1.7675    6.5280 C   0  0  0  0  0  0  0  0  0  0  0  0
   -7.3776   -1.6434    7.6923 C   0  0  0  0  0  0  0  0  0  0  0  0
   -8.0088   -0.3272    7.8985 N   0  0  0  0  0  0  0  0  0  0  0  0
   -9.4123   -0.2692    8.0041 C   0  0  0  0  0  0  0  0  0  0  0  0
  -10.1761   -0.9783    7.0847 C   0  0  0  0  0  0  0  0  0  0  0  0
  -11.5602   -0.9843    7.1845 C   0  0  0  0  0  0  0  0  0  0  0  0
  -12.5693   -1.7607    5.8096 Br  0  0  0  0  0  0  0  0  0  0  0  0
  -12.2256   -0.3722    8.2345 C   0  0  0  0  0  0  0  0  0  0  0  0
  -11.5016    0.4012    9.1133 C   0  0  0  0  0  0  0  0  0  0  0  0
  -12.1628    1.0186   10.1355 O   0  0  0  0  0  0  0  0  0  0  0  0
  -10.1218    0.5617    8.9170 C   0  0  0  0  0  0  0  0  0  0  0  0
   -9.5355    1.7370    9.5839 C   0  0  0  0  0  0  0  0  0  0  0  0
   -9.7774    2.1741   10.6909 O   0  0  0  0  0  0  0  0  0  0  0  0
   -8.7039    2.4006    8.7627 O   0  0  0  0  0  0  0  0  0  0  0  0
   -4.8395    0.2375    7.6271 S   0  0  0  0  0  0  0  0  0  0  0  0
   -5.2952   -0.2361    8.9106 O   0  0  0  0  0  0  0  0  0  0  0  0
   -3.4758    0.6787    7.4979 O   0  0  0  0  0  0  0  0  0  0  0  0
   -5.9184    1.5365    7.1019 C   0  0  0  0  0  0  0  0  0  0  0  0
   -5.5282    2.9939    7.2366 C   0  0  0  0  0  0  0  0  0  0  0  0
   -6.4197    3.6779    6.1936 C   0  0  0  0  0  0  0  0  0  0  0  0
   -7.1728    2.6058    5.5539 N   0  0  0  0  0  0  0  0  0  0  0  0
   -7.6320    2.8675    4.1997 C   0  0  0  0  0  0  0  0  0  0  0  0
   -8.4263    1.6992    3.7177 C   0  0  0  0  0  0  0  0  0  0  0  0
   -8.0451    0.7337    2.8113 C   0  0  0  0  0  0  0  0  0  0  0  0
   -9.0541   -0.1494    2.6141 O   0  0  0  0  0  0  0  0  0  0  0  0
  -10.1471    0.2282    3.3759 N   0  0  0  0  0  0  0  0  0  0  0  0
   -9.7561    1.3295    4.0231 C   0  0  0  0  0  0  0  0  0  0  0  0
  -10.8952    2.2880    5.1739 Br  0  0  0  0  0  0  0  0  0  0  0  0
   -6.3472    1.4219    5.6751 C   0  0  0  0  0  0  0  0  0  0  0  0
   -3.4789   -0.5304    5.2723 H   0  0  0  0  0  0  0  0  0  0  0  0
   -4.1655   -2.1381    5.0700 H   0  0  0  0  0  0  0  0  0  0  0  0
   -5.0382   -0.7262    4.4726 H   0  0  0  0  0  0  0  0  0  0  0  0
   -6.9146   -1.5418    5.5953 H   0  0  0  0  0  0  0  0  0  0  0  0
   -6.1161   -2.8315    6.4689 H   0  0  0  0  0  0  0  0  0  0  0  0
   -8.1223   -2.4424    7.5921 H   0  0  0  0  0  0  0  0  0  0  0  0
   -6.8660   -1.8557    8.6167 H   0  0  0  0  0  0  0  0  0  0  0  0
   -7.6256    0.0601    8.7705 H   0  0  0  0  0  0  0  0  0  0  0  0
   -9.7027   -1.4986    6.2574 H   0  0  0  0  0  0  0  0  0  0  0  0
  -13.3047   -0.4578    8.3183 H   0  0  0  0  0  0  0  0  0  0  0  0
  -13.0865    0.7234   10.1676 H   0  0  0  0  0  0  0  0  0  0  0  0
   -8.3546    3.1007    9.3567 H   0  0  0  0  0  0  0  0  0  0  0  0
   -6.7757    1.4643    7.7544 H   0  0  0  0  0  0  0  0  0  0  0  0
   -5.7558    3.3956    8.2253 H   0  0  0  0  0  0  0  0  0  0  0  0
   -4.4704    3.1788    7.0629 H   0  0  0  0  0  0  0  0  0  0  0  0
   -7.0963    4.4009    6.6609 H   0  0  0  0  0  0  0  0  0  0  0  0
   -5.7862    4.2178    5.4793 H   0  0  0  0  0  0  0  0  0  0  0  0
   -6.7868    3.0523    3.5242 H   0  0  0  0  0  0  0  0  0  0  0  0
   -8.2581    3.7672    4.1801 H   0  0  0  0  0  0  0  0  0  0  0  0
   -7.1435    0.5415    2.2487 H   0  0  0  0  0  0  0  0  0  0  0  0
   -5.4998    1.4488    4.9817 H   0  0  0  0  0  0  0  0  0  0  0  0
   -6.9402    0.5317    5.4907 H   0  0  0  0  0  0  0  0  0  0  0  0
  1  2  1  0
  2  3  1  0
  3  4  1  0
  4  5  1  0
  5  6  1  0
  6  7  2  0
  7  8  1  0
  8  9  1  0
  8 10  2  0
 10 11  1  0
 11 12  1  0
 11 13  2  0
 13 14  1  0
 14 15  2  0
 14 16  1  0
  2 17  1  0
 17 18  2  0
 17 19  2  0
 17 20  1  0
 20 21  1  0
 21 22  1  0
 22 23  1  0
 23 24  1  0
 24 25  1  0
 25 26  2  0
 26 27  1  0
 27 28  1  0
 28 29  2  0
 29 30  1  0
 23 31  1  0
 13  6  1  0
 31 20  1  0
 29 25  1  0
  1 32  1  0
  1 33  1  0
  1 34  1  0
  3 35  1  0
  3 36  1  0
  4 37  1  0
  4 38  1  0
  5 39  1  0
  7 40  1  0
 10 41  1  0
 12 42  1  0
 16 43  1  0
 20 44  1  0
 21 45  1  0
 21 46  1  0
 22 47  1  0
 22 48  1  0
 24 49  1  0
 24 50  1  0
 26 51  1  0
 31 52  1  0
 31 53  1  0
M  END
>  <Energy>  (402) 
21.23158924897567

>  <compound_id>  (402) 
1718

>  <target_id>  (402) 
1

>  <reference_id>  (402) 
179

>  <inspiration_ids>  (402) 
[17, 179]

>  <energy_score>  (402) 
-67.60833350442294

>  <distance_score>  (402) 
2.9499839346775505

>  <path>  (402) 
/opt/xchem-fragalysis-2/maxwin/BulkDock/SCRATCH/505732/C1718-P179/C1718-P179.minimised.mol

>  <scratch_subdir>  (402) 
/opt/xchem-fragalysis-2/maxwin/BulkDock/SCRATCH/505732/C1718-P179

>  <fragmenstein_runtime>  (402) 
3.9585914611816406

>  <fragmenstein_outcome>  (402) 
too moved

>  <fragmenstein_mode>  (402) 
expansion

>  <fragmenstein_error>  (402) 


$$$$
C1719-P17
     RDKit          3D

 27 28  0  0  0  0  0  0  0  0999 V2000
  -11.6689   -1.0544    7.4447 N   0  0  0  0  0  0  0  0  0  0  0  0
  -10.6856    0.0207    7.5805 C   0  0  0  0  0  0  0  0  0  0  0  0
   -9.2098   -0.3937    7.6451 C   0  0  0  0  0  0  0  0  0  0  0  0
   -8.7784   -1.7178    7.4575 C   0  0  0  0  0  0  0  0  0  0  0  0
   -7.4145   -2.0351    7.3774 C   0  0  0  0  0  0  0  0  0  0  0  0
   -6.4474   -1.0426    7.5117 C   0  0  0  0  0  0  0  0  0  0  0  0
   -6.8448    0.2723    7.7157 C   0  0  0  0  0  0  0  0  0  0  0  0
   -8.2060    0.5914    7.7723 C   0  0  0  0  0  0  0  0  0  0  0  0
  -11.0081    0.7685    8.8621 C   0  0  0  0  0  0  0  0  0  0  0  0
  -11.1696    0.1606   10.1009 C   0  0  0  0  0  0  0  0  0  0  0  0
  -11.5237    1.2526   11.3526 S   0  0  0  0  0  0  0  0  0  0  0  0
  -11.4579    2.5718   10.2829 C   0  0  0  0  0  0  0  0  0  0  0  0
  -11.1970    2.2115    8.9726 C   0  0  0  0  0  0  0  0  0  0  0  0
  -11.1154    3.1952    7.8998 C   0  0  0  0  0  0  0  0  0  0  0  0
  -10.8306    2.9732    6.7322 O   0  0  0  0  0  0  0  0  0  0  0  0
  -11.3840    4.4683    8.2754 O   0  0  0  0  0  0  0  0  0  0  0  0
  -11.5011   -1.5522    6.5721 H   0  0  0  0  0  0  0  0  0  0  0  0
  -12.5977   -0.6506    7.3656 H   0  0  0  0  0  0  0  0  0  0  0  0
  -10.8005    0.6533    6.6977 H   0  0  0  0  0  0  0  0  0  0  0  0
   -9.5066   -2.5222    7.3651 H   0  0  0  0  0  0  0  0  0  0  0  0
   -7.1174   -3.0687    7.2176 H   0  0  0  0  0  0  0  0  0  0  0  0
   -5.3931   -1.2979    7.4611 H   0  0  0  0  0  0  0  0  0  0  0  0
   -6.1009    1.0567    7.8108 H   0  0  0  0  0  0  0  0  0  0  0  0
   -8.4799    1.6366    7.8943 H   0  0  0  0  0  0  0  0  0  0  0  0
  -11.0795   -0.8976   10.3099 H   0  0  0  0  0  0  0  0  0  0  0  0
  -11.6278    3.5672   10.6709 H   0  0  0  0  0  0  0  0  0  0  0  0
  -11.2788    4.9645    7.4385 H   0  0  0  0  0  0  0  0  0  0  0  0
  1  2  1  0
  2  3  1  0
  3  4  2  0
  4  5  1  0
  5  6  2  0
  6  7  1  0
  7  8  2  0
  2  9  1  0
  9 10  2  0
 10 11  1  0
 11 12  1  0
 12 13  2  0
 13 14  1  0
 14 15  2  0
 14 16  1  0
  8  3  1  0
 13  9  1  0
  1 17  1  0
  1 18  1  0
  2 19  1  0
  4 20  1  0
  5 21  1  0
  6 22  1  0
  7 23  1  0
  8 24  1  0
 10 25  1  0
 12 26  1  0
 16 27  1  0
M  END
>  <Energy>  (403) 
-2.5463057352994376

>  <compound_id>  (403) 
1719

>  <target_id>  (403) 
1

>  <reference_id>  (403) 
17

>  <inspiration_ids>  (403) 
[17, 181]

>  <energy_score>  (403) 
-45.45611758964995

>  <distance_score>  (403) 
1.7728385364497892

>  <path>  (403) 
/opt/xchem-fragalysis-2/maxwin/BulkDock/SCRATCH/505732/C1719-P17/C1719-P17.minimised.mol

>  <scratch_subdir>  (403) 
/opt/xchem-fragalysis-2/maxwin/BulkDock/SCRATCH/505732/C1719-P17

>  <fragmenstein_runtime>  (403) 
16.750439643859863

>  <fragmenstein_outcome>  (403) 
too moved

>  <fragmenstein_mode>  (403) 
expansion

>  <fragmenstein_error>  (403) 


$$$$
C1719-P181
     RDKit          3D

 27 28  0  0  0  0  0  0  0  0999 V2000
  -11.5742   -1.4015    7.3987 N   0  0  0  0  0  0  0  0  0  0  0  0
  -10.6873   -0.2361    7.3712 C   0  0  0  0  0  0  0  0  0  0  0  0
   -9.1877   -0.5456    7.4843 C   0  0  0  0  0  0  0  0  0  0  0  0
   -8.6791   -1.8260    7.1891 C   0  0  0  0  0  0  0  0  0  0  0  0
   -7.3010   -2.0730    7.1160 C   0  0  0  0  0  0  0  0  0  0  0  0
   -6.3916   -1.0432    7.3284 C   0  0  0  0  0  0  0  0  0  0  0  0
   -6.8640    0.2324    7.6086 C   0  0  0  0  0  0  0  0  0  0  0  0
   -8.2400    0.4765    7.6917 C   0  0  0  0  0  0  0  0  0  0  0  0
  -11.0957    0.6970    8.5041 C   0  0  0  0  0  0  0  0  0  0  0  0
  -11.3189    0.3087    9.8194 C   0  0  0  0  0  0  0  0  0  0  0  0
  -11.8460    1.5771   10.8228 S   0  0  0  0  0  0  0  0  0  0  0  0
  -11.7159    2.6980    9.5557 C   0  0  0  0  0  0  0  0  0  0  0  0
  -11.3332    2.1317    8.3524 C   0  0  0  0  0  0  0  0  0  0  0  0
  -11.1849    2.9266    7.1378 C   0  0  0  0  0  0  0  0  0  0  0  0
  -10.7116    2.5503    6.0767 O   0  0  0  0  0  0  0  0  0  0  0  0
  -11.6140    4.2067    7.2441 O   0  0  0  0  0  0  0  0  0  0  0  0
  -11.3708   -1.9466    8.2415 H   0  0  0  0  0  0  0  0  0  0  0  0
  -12.5408   -1.0937    7.4689 H   0  0  0  0  0  0  0  0  0  0  0  0
  -10.8433    0.2332    6.3972 H   0  0  0  0  0  0  0  0  0  0  0  0
   -9.3635   -2.6443    6.9707 H   0  0  0  0  0  0  0  0  0  0  0  0
   -6.9491   -3.0720    6.8714 H   0  0  0  0  0  0  0  0  0  0  0  0
   -5.3250   -1.2328    7.2566 H   0  0  0  0  0  0  0  0  0  0  0  0
   -6.1656    1.0536    7.7266 H   0  0  0  0  0  0  0  0  0  0  0  0
   -8.5606    1.4991    7.8729 H   0  0  0  0  0  0  0  0  0  0  0  0
  -11.2015   -0.6837   10.2322 H   0  0  0  0  0  0  0  0  0  0  0  0
  -11.9477    3.7375    9.7467 H   0  0  0  0  0  0  0  0  0  0  0  0
  -11.4375    4.5605    6.3483 H   0  0  0  0  0  0  0  0  0  0  0  0
  1  2  1  0
  2  3  1  0
  3  4  2  0
  4  5  1  0
  5  6  2  0
  6  7  1  0
  7  8  2  0
  2  9  1  0
  9 10  2  0
 10 11  1  0
 11 12  1  0
 12 13  2  0
 13 14  1  0
 14 15  2  0
 14 16  1  0
  8  3  1  0
 13  9  1  0
  1 17  1  0
  1 18  1  0
  2 19  1  0
  4 20  1  0
  5 21  1  0
  6 22  1  0
  7 23  1  0
  8 24  1  0
 10 25  1  0
 12 26  1  0
 16 27  1  0
M  END
>  <Energy>  (404) 
-0.42904777845165665

>  <compound_id>  (404) 
1719

>  <target_id>  (404) 
1

>  <reference_id>  (404) 
181

>  <inspiration_ids>  (404) 
[17, 181]

>  <energy_score>  (404) 
-43.338859632801686

>  <distance_score>  (404) 
1.6497690735441994

>  <path>  (404) 
/opt/xchem-fragalysis-2/maxwin/BulkDock/SCRATCH/505732/C1719-P181/C1719-P181.minimised.mol

>  <scratch_subdir>  (404) 
/opt/xchem-fragalysis-2/maxwin/BulkDock/SCRATCH/505732/C1719-P181

>  <fragmenstein_runtime>  (404) 
16.879608869552612

>  <fragmenstein_outcome>  (404) 
too moved

>  <fragmenstein_mode>  (404) 
expansion

>  <fragmenstein_error>  (404) 


$$$$
C1720-P17
     RDKit          3D

 25 26  0  0  0  0  0  0  0  0999 V2000
   -4.7067   -2.5215    5.6384 C   0  0  0  0  0  0  0  0  0  0  0  0
   -5.6881   -1.6580    4.9268 C   0  0  0  0  0  0  0  0  0  0  0  0
   -6.9500   -1.6471    5.2284 N   0  0  0  0  0  0  0  0  0  0  0  0
   -7.6735   -0.7842    4.2565 C   0  0  0  0  0  0  0  0  0  0  0  0
   -8.5687    0.2383    4.9444 C   0  0  0  0  0  0  0  0  0  0  0  0
   -9.8877    0.6082    3.7339 S   0  0  0  0  0  0  0  0  0  0  0  0
   -9.4409   -0.7404    2.5874 C   0  0  0  0  0  0  0  0  0  0  0  0
   -8.5342   -1.6712    3.3578 C   0  0  0  0  0  0  0  0  0  0  0  0
   -9.3943   -2.6669    4.1150 C   0  0  0  0  0  0  0  0  0  0  0  0
  -10.0547   -2.4668    5.1204 O   0  0  0  0  0  0  0  0  0  0  0  0
   -9.4556   -3.8700    3.5000 O   0  0  0  0  0  0  0  0  0  0  0  0
   -6.5357   -0.1006    3.4900 C   0  0  0  0  0  0  0  0  0  0  0  0
   -6.6383    0.8392    2.7161 O   0  0  0  0  0  0  0  0  0  0  0  0
   -5.2435   -0.7634    3.8195 C   0  0  0  0  0  0  0  0  0  0  0  0
   -3.8749   -1.9063    5.9894 H   0  0  0  0  0  0  0  0  0  0  0  0
   -4.3445   -3.2887    4.9551 H   0  0  0  0  0  0  0  0  0  0  0  0
   -5.1778   -3.0035    6.4994 H   0  0  0  0  0  0  0  0  0  0  0  0
   -9.0264   -0.1569    5.8566 H   0  0  0  0  0  0  0  0  0  0  0  0
   -8.0398    1.1605    5.2048 H   0  0  0  0  0  0  0  0  0  0  0  0
  -10.3507   -1.2267    2.2217 H   0  0  0  0  0  0  0  0  0  0  0  0
   -8.9247   -0.3010    1.7280 H   0  0  0  0  0  0  0  0  0  0  0  0
   -7.9031   -2.2410    2.6629 H   0  0  0  0  0  0  0  0  0  0  0  0
  -10.0808   -4.3766    4.0770 H   0  0  0  0  0  0  0  0  0  0  0  0
   -4.5100   -0.0420    4.1825 H   0  0  0  0  0  0  0  0  0  0  0  0
   -4.8745   -1.3500    2.9770 H   0  0  0  0  0  0  0  0  0  0  0  0
  1  2  1  0
  2  3  2  0
  3  4  1  0
  4  5  1  0
  5  6  1  0
  6  7  1  0
  7  8  1  0
  8  9  1  0
  9 10  2  0
  9 11  1  0
  4 12  1  0
 12 13  2  0
 12 14  1  0
 14  2  1  0
  8  4  1  0
  1 15  1  0
  1 16  1  0
  1 17  1  0
  5 18  1  0
  5 19  1  0
  7 20  1  0
  7 21  1  0
  8 22  1  0
 11 23  1  0
 14 24  1  0
 14 25  1  0
M  END
>  <Energy>  (405) 
6.374780806600624

>  <compound_id>  (405) 
1720

>  <target_id>  (405) 
1

>  <reference_id>  (405) 
17

>  <inspiration_ids>  (405) 
[17, 182]

>  <energy_score>  (405) 
-29.155922535229905

>  <distance_score>  (405) 
3.3524286507755026

>  <path>  (405) 
/opt/xchem-fragalysis-2/maxwin/BulkDock/SCRATCH/505732/C1720-P17/C1720-P17.minimised.mol

>  <scratch_subdir>  (405) 
/opt/xchem-fragalysis-2/maxwin/BulkDock/SCRATCH/505732/C1720-P17

>  <fragmenstein_runtime>  (405) 
3.99499249458313

>  <fragmenstein_outcome>  (405) 
too moved

>  <fragmenstein_mode>  (405) 
expansion

>  <fragmenstein_error>  (405) 


$$$$
C1720-P182
     RDKit          3D

 25 26  0  0  0  0  0  0  0  0999 V2000
   -3.8180   -1.3988    5.4232 C   0  0  0  0  0  0  0  0  0  0  0  0
   -4.8874   -0.9967    4.4877 C   0  0  0  0  0  0  0  0  0  0  0  0
   -5.5449   -1.8914    3.8440 N   0  0  0  0  0  0  0  0  0  0  0  0
   -6.5717   -1.2211    2.9977 C   0  0  0  0  0  0  0  0  0  0  0  0
   -6.2745   -1.5587    1.5353 C   0  0  0  0  0  0  0  0  0  0  0  0
   -6.7908   -3.3083    1.3912 S   0  0  0  0  0  0  0  0  0  0  0  0
   -7.6336   -3.3123    3.0135 C   0  0  0  0  0  0  0  0  0  0  0  0
   -7.9088   -1.8438    3.3069 C   0  0  0  0  0  0  0  0  0  0  0  0
   -8.4625   -1.6657    4.6908 C   0  0  0  0  0  0  0  0  0  0  0  0
   -9.5199   -2.1581    5.0634 O   0  0  0  0  0  0  0  0  0  0  0  0
   -7.7688   -0.8820    5.5285 O   0  0  0  0  0  0  0  0  0  0  0  0
   -6.4186    0.2451    3.3121 C   0  0  0  0  0  0  0  0  0  0  0  0
   -7.1165    1.1622    2.9110 O   0  0  0  0  0  0  0  0  0  0  0  0
   -5.2152    0.4174    4.1683 C   0  0  0  0  0  0  0  0  0  0  0  0
   -3.9965   -2.4114    5.7943 H   0  0  0  0  0  0  0  0  0  0  0  0
   -3.7895   -0.7111    6.2716 H   0  0  0  0  0  0  0  0  0  0  0  0
   -2.8732   -1.3641    4.8807 H   0  0  0  0  0  0  0  0  0  0  0  0
   -6.8646   -0.9487    0.8440 H   0  0  0  0  0  0  0  0  0  0  0  0
   -5.2149   -1.4572    1.2810 H   0  0  0  0  0  0  0  0  0  0  0  0
   -8.5205   -3.9248    2.9891 H   0  0  0  0  0  0  0  0  0  0  0  0
   -6.9809   -3.7771    3.7609 H   0  0  0  0  0  0  0  0  0  0  0  0
   -8.6705   -1.4249    2.6341 H   0  0  0  0  0  0  0  0  0  0  0  0
   -8.2943   -0.8939    6.3600 H   0  0  0  0  0  0  0  0  0  0  0  0
   -4.4366    0.8331    3.5347 H   0  0  0  0  0  0  0  0  0  0  0  0
   -5.4267    0.9978    5.0654 H   0  0  0  0  0  0  0  0  0  0  0  0
  1  2  1  0
  2  3  2  0
  3  4  1  0
  4  5  1  0
  5  6  1  0
  6  7  1  0
  7  8  1  0
  8  9  1  0
  9 10  2  0
  9 11  1  0
  4 12  1  0
 12 13  2  0
 12 14  1  0
 14  2  1  0
  8  4  1  0
  1 15  1  0
  1 16  1  0
  1 17  1  0
  5 18  1  0
  5 19  1  0
  7 20  1  0
  7 21  1  0
  8 22  1  0
 11 23  1  0
 14 24  1  0
 14 25  1  0
M  END
>  <Energy>  (406) 
8.6034456766720737

>  <compound_id>  (406) 
1720

>  <target_id>  (406) 
1

>  <reference_id>  (406) 
182

>  <inspiration_ids>  (406) 
[17, 182]

>  <energy_score>  (406) 
-26.92725766515825

>  <distance_score>  (406) 
2.1270209354928418

>  <path>  (406) 
/opt/xchem-fragalysis-2/maxwin/BulkDock/SCRATCH/505732/C1720-P182/C1720-P182.minimised.mol

>  <scratch_subdir>  (406) 
/opt/xchem-fragalysis-2/maxwin/BulkDock/SCRATCH/505732/C1720-P182

>  <fragmenstein_runtime>  (406) 
3.354083299636841

>  <fragmenstein_outcome>  (406) 
too moved

>  <fragmenstein_mode>  (406) 
expansion

>  <fragmenstein_error>  (406) 


$$$$
C1727-P18
     RDKit          3D

 21 20  0  0  0  0  0  0  0  0999 V2000
  -21.0285   -0.4717   16.9024 C   0  0  0  0  0  0  0  0  0  0  0  0
  -21.6155    0.8830   17.3074 C   0  0  0  0  0  0  0  0  0  0  0  0
  -20.8351    2.1776   16.9581 C   0  0  0  0  0  0  0  0  0  0  0  0
  -20.6269    2.5951   15.4804 C   0  0  0  0  0  0  0  0  0  0  0  0
  -19.3307    2.0544   14.8829 C   0  0  0  0  0  0  0  0  0  0  0  0
  -22.1193    2.2630   14.4752 S   0  0  0  0  0  0  0  0  0  0  0  0
  -21.4992    2.4634   12.7949 C   0  0  0  0  0  0  0  0  0  0  0  0
  -20.2128   -0.7664   17.5614 H   0  0  0  0  0  0  0  0  0  0  0  0
  -20.6874   -0.4775   15.8658 H   0  0  0  0  0  0  0  0  0  0  0  0
  -21.7989   -1.2446   17.0013 H   0  0  0  0  0  0  0  0  0  0  0  0
  -21.7452    0.8653   18.3980 H   0  0  0  0  0  0  0  0  0  0  0  0
  -22.6334    0.9528   16.9074 H   0  0  0  0  0  0  0  0  0  0  0  0
  -19.8764    2.1845   17.4847 H   0  0  0  0  0  0  0  0  0  0  0  0
  -21.4046    2.9928   17.4299 H   0  0  0  0  0  0  0  0  0  0  0  0
  -20.5298    3.6861   15.4825 H   0  0  0  0  0  0  0  0  0  0  0  0
  -19.1369    2.4534   13.8831 H   0  0  0  0  0  0  0  0  0  0  0  0
  -19.3218    0.9635   14.8225 H   0  0  0  0  0  0  0  0  0  0  0  0
  -18.4794    2.3785   15.4873 H   0  0  0  0  0  0  0  0  0  0  0  0
  -20.9576    3.4019   12.6875 H   0  0  0  0  0  0  0  0  0  0  0  0
  -22.3472    2.4784   12.1045 H   0  0  0  0  0  0  0  0  0  0  0  0
  -20.8569    1.6240   12.5167 H   0  0  0  0  0  0  0  0  0  0  0  0
  1  2  1  0
  2  3  1  0
  3  4  1  0
  4  5  1  0
  4  6  1  0
  6  7  1  0
  1  8  1  0
  1  9  1  0
  1 10  1  0
  2 11  1  0
  2 12  1  0
  3 13  1  0
  3 14  1  0
  4 15  1  0
  5 16  1  0
  5 17  1  0
  5 18  1  0
  7 19  1  0
  7 20  1  0
  7 21  1  0
M  END
>  <Energy>  (407) 
14.244195742982543

>  <compound_id>  (407) 
1727

>  <target_id>  (407) 
1

>  <reference_id>  (407) 
18

>  <inspiration_ids>  (407) 
[18, 174]

>  <energy_score>  (407) 
-6.248258248135912

>  <distance_score>  (407) 
1.3367026684708279

>  <path>  (407) 
/opt/xchem-fragalysis-2/maxwin/BulkDock/SCRATCH/505732/C1727-P18/C1727-P18.minimised.mol

>  <scratch_subdir>  (407) 
/opt/xchem-fragalysis-2/maxwin/BulkDock/SCRATCH/505732/C1727-P18

>  <fragmenstein_runtime>  (407) 
1.696429967880249

>  <fragmenstein_outcome>  (407) 
too moved

>  <fragmenstein_mode>  (407) 
expansion

>  <fragmenstein_error>  (407) 


$$$$
C1727-P174
     RDKit          3D

 21 20  0  0  0  0  0  0  0  0999 V2000
  -20.6428   -1.2258   16.6899 C   0  0  0  0  0  0  0  0  0  0  0  0
  -21.5940   -0.1102   16.2530 C   0  0  0  0  0  0  0  0  0  0  0  0
  -21.0235    1.3202   16.3881 C   0  0  0  0  0  0  0  0  0  0  0  0
  -20.4678    1.9715   15.1063 C   0  0  0  0  0  0  0  0  0  0  0  0
  -19.4132    1.1577   14.3715 C   0  0  0  0  0  0  0  0  0  0  0  0
  -21.8838    2.3551   14.0017 S   0  0  0  0  0  0  0  0  0  0  0  0
  -21.0496    3.3091   12.7233 C   0  0  0  0  0  0  0  0  0  0  0  0
  -20.3727   -1.1130   17.7426 H   0  0  0  0  0  0  0  0  0  0  0  0
  -19.7321   -1.2311   16.0855 H   0  0  0  0  0  0  0  0  0  0  0  0
  -21.1296   -2.1995   16.5733 H   0  0  0  0  0  0  0  0  0  0  0  0
  -22.4838   -0.1791   16.8920 H   0  0  0  0  0  0  0  0  0  0  0  0
  -21.9358   -0.3094   15.2322 H   0  0  0  0  0  0  0  0  0  0  0  0
  -20.2657    1.3341   17.1710 H   0  0  0  0  0  0  0  0  0  0  0  0
  -21.8291    1.9593   16.7773 H   0  0  0  0  0  0  0  0  0  0  0  0
  -20.0103    2.9199   15.3912 H   0  0  0  0  0  0  0  0  0  0  0  0
  -18.9416    1.7380   13.5720 H   0  0  0  0  0  0  0  0  0  0  0  0
  -19.8335    0.2499   13.9248 H   0  0  0  0  0  0  0  0  0  0  0  0
  -18.6064    0.8465   15.0338 H   0  0  0  0  0  0  0  0  0  0  0  0
  -20.4393    2.6622   12.0887 H   0  0  0  0  0  0  0  0  0  0  0  0
  -20.4277    4.0919   13.1653 H   0  0  0  0  0  0  0  0  0  0  0  0
  -21.8014    3.7877   12.0895 H   0  0  0  0  0  0  0  0  0  0  0  0
  1  2  1  0
  2  3  1  0
  3  4  1  0
  4  5  1  0
  4  6  1  0
  6  7  1  0
  1  8  1  0
  1  9  1  0
  1 10  1  0
  2 11  1  0
  2 12  1  0
  3 13  1  0
  3 14  1  0
  4 15  1  0
  5 16  1  0
  5 17  1  0
  5 18  1  0
  7 19  1  0
  7 20  1  0
  7 21  1  0
M  END
>  <Energy>  (408) 
10.523235162777825

>  <compound_id>  (408) 
1727

>  <target_id>  (408) 
1

>  <reference_id>  (408) 
174

>  <inspiration_ids>  (408) 
[18, 174]

>  <energy_score>  (408) 
-9.969218828340459

>  <distance_score>  (408) 
1.403472651332207

>  <path>  (408) 
/opt/xchem-fragalysis-2/maxwin/BulkDock/SCRATCH/505732/C1727-P174/C1727-P174.minimised.mol

>  <scratch_subdir>  (408) 
/opt/xchem-fragalysis-2/maxwin/BulkDock/SCRATCH/505732/C1727-P174

>  <fragmenstein_runtime>  (408) 
1.7639696598052979

>  <fragmenstein_outcome>  (408) 
too moved

>  <fragmenstein_mode>  (408) 
expansion

>  <fragmenstein_error>  (408) 


$$$$
C1730-P19
     RDKit          3D

 20 20  0  0  0  0  0  0  0  0999 V2000
  -12.3524  -33.5463   23.6069 C   0  0  0  0  0  0  0  0  0  0  0  0
  -11.8025  -34.8689   23.7867 N   0  0  0  0  0  0  0  0  0  0  0  0
  -10.5186  -35.0589   24.1801 C   0  0  0  0  0  0  0  0  0  0  0  0
   -9.5148  -34.1333   24.1443 C   0  0  0  0  0  0  0  0  0  0  0  0
   -8.0803  -34.7461   24.8198 S   0  0  0  0  0  0  0  0  0  0  0  0
   -8.7266  -36.2753   25.0157 C   0  0  0  0  0  0  0  0  0  0  0  0
  -10.0562  -36.3175   24.6560 C   0  0  0  0  0  0  0  0  0  0  0  0
  -10.8825  -37.5302   24.7827 C   0  0  0  0  0  0  0  0  0  0  0  0
  -11.6707  -37.4478   25.9410 O   0  0  0  0  0  0  0  0  0  0  0  0
  -11.7511  -37.7519   23.6987 O   0  0  0  0  0  0  0  0  0  0  0  0
  -10.0627  -38.6617   24.8417 O   0  0  0  0  0  0  0  0  0  0  0  0
  -12.4277  -33.0338   24.5703 H   0  0  0  0  0  0  0  0  0  0  0  0
  -11.7644  -32.9533   22.8997 H   0  0  0  0  0  0  0  0  0  0  0  0
  -13.3639  -33.6295   23.1959 H   0  0  0  0  0  0  0  0  0  0  0  0
  -12.5114  -35.4879   24.1875 H   0  0  0  0  0  0  0  0  0  0  0  0
   -9.5510  -33.1163   23.7905 H   0  0  0  0  0  0  0  0  0  0  0  0
   -8.1421  -37.1004   25.3954 H   0  0  0  0  0  0  0  0  0  0  0  0
  -12.3515  -38.1191   25.7683 H   0  0  0  0  0  0  0  0  0  0  0  0
  -11.5967  -37.0088   23.0836 H   0  0  0  0  0  0  0  0  0  0  0  0
  -10.4911  -39.2197   24.1692 H   0  0  0  0  0  0  0  0  0  0  0  0
  1  2  1  0
  2  3  1  0
  3  4  2  0
  4  5  1  0
  5  6  1  0
  6  7  2  0
  7  8  1  0
  8  9  1  0
  8 10  1  0
  8 11  1  0
  7  3  1  0
  1 12  1  0
  1 13  1  0
  1 14  1  0
  2 15  1  0
  4 16  1  0
  6 17  1  0
  9 18  1  0
 10 19  1  0
 11 20  1  0
M  END
>  <Energy>  (409) 
-115.76597254093991

>  <compound_id>  (409) 
1730

>  <target_id>  (409) 
1

>  <reference_id>  (409) 
19

>  <inspiration_ids>  (409) 
[19, 90]

>  <energy_score>  (409) 
-38.96627957734755

>  <distance_score>  (409) 
1.7877759728669715

>  <path>  (409) 
/opt/xchem-fragalysis-2/maxwin/BulkDock/SCRATCH/505732/C1730-P19/C1730-P19.minimised.mol

>  <scratch_subdir>  (409) 
/opt/xchem-fragalysis-2/maxwin/BulkDock/SCRATCH/505732/C1730-P19

>  <fragmenstein_runtime>  (409) 
4.054575681686401

>  <fragmenstein_outcome>  (409) 
too moved

>  <fragmenstein_mode>  (409) 
expansion

>  <fragmenstein_error>  (409) 


$$$$
C1731-P19
     RDKit          3D

 40 41  0  0  0  0  0  0  0  0999 V2000
  -17.6404  -29.3036   24.7424 C   0  0  0  0  0  0  0  0  0  0  0  0
  -17.5563  -30.2248   25.9492 C   0  0  0  0  0  0  0  0  0  0  0  0
  -16.1878  -30.8899   26.1068 C   0  0  0  0  0  0  0  0  0  0  0  0
  -15.9787  -32.0837   25.1695 C   0  0  0  0  0  0  0  0  0  0  0  0
  -16.6967  -32.3495   24.2900 O   0  0  0  0  0  0  0  0  0  0  0  0
  -14.7267  -32.8260   25.7030 N   0  0  0  0  0  0  0  0  0  0  0  0
  -14.1580  -34.0978   25.3229 C   0  0  0  0  0  0  0  0  0  0  0  0
  -12.7033  -34.0529   24.7833 C   0  0  0  0  0  0  0  0  0  0  0  0
  -12.5466  -33.4877   23.4445 N   0  0  0  0  0  0  0  0  0  0  0  0
  -11.7827  -34.4404   22.6397 C   0  0  0  0  0  0  0  0  0  0  0  0
  -11.1122  -35.3603   23.6656 C   0  0  0  0  0  0  0  0  0  0  0  0
   -9.7835  -34.7566   24.1802 C   0  0  0  0  0  0  0  0  0  0  0  0
   -8.4391  -35.5615   23.2545 S   0  0  0  0  0  0  0  0  0  0  0  0
   -9.5268  -36.6095   22.2808 C   0  0  0  0  0  0  0  0  0  0  0  0
  -10.7581  -36.7739   23.1549 C   0  0  0  0  0  0  0  0  0  0  0  0
  -11.8890  -37.4637   22.4316 C   0  0  0  0  0  0  0  0  0  0  0  0
  -13.0720  -37.3784   22.7239 O   0  0  0  0  0  0  0  0  0  0  0  0
  -11.4957  -38.2770   21.4374 O   0  0  0  0  0  0  0  0  0  0  0  0
  -12.1386  -35.4051   24.7307 N   0  0  0  0  0  0  0  0  0  0  0  0
  -16.9114  -28.4914   24.8223 H   0  0  0  0  0  0  0  0  0  0  0  0
  -17.4597  -29.8427   23.8084 H   0  0  0  0  0  0  0  0  0  0  0  0
  -18.6365  -28.8534   24.6824 H   0  0  0  0  0  0  0  0  0  0  0  0
  -17.7620  -29.6283   26.8458 H   0  0  0  0  0  0  0  0  0  0  0  0
  -18.3449  -30.9835   25.8845 H   0  0  0  0  0  0  0  0  0  0  0  0
  -15.3856  -30.1646   25.9449 H   0  0  0  0  0  0  0  0  0  0  0  0
  -16.1174  -31.2582   27.1375 H   0  0  0  0  0  0  0  0  0  0  0  0
  -14.3843  -32.3577   26.5393 H   0  0  0  0  0  0  0  0  0  0  0  0
  -14.8268  -34.5574   24.5855 H   0  0  0  0  0  0  0  0  0  0  0  0
  -14.1947  -34.7174   26.2267 H   0  0  0  0  0  0  0  0  0  0  0  0
  -12.1033  -33.4434   25.4670 H   0  0  0  0  0  0  0  0  0  0  0  0
  -13.4683  -33.3483   23.0269 H   0  0  0  0  0  0  0  0  0  0  0  0
  -11.0648  -33.9111   22.0047 H   0  0  0  0  0  0  0  0  0  0  0  0
  -12.4763  -34.9741   21.9822 H   0  0  0  0  0  0  0  0  0  0  0  0
   -9.7258  -33.6717   24.0592 H   0  0  0  0  0  0  0  0  0  0  0  0
   -9.6173  -34.9940   25.2354 H   0  0  0  0  0  0  0  0  0  0  0  0
   -9.7529  -36.1255   21.3246 H   0  0  0  0  0  0  0  0  0  0  0  0
   -9.0372  -37.5656   22.0720 H   0  0  0  0  0  0  0  0  0  0  0  0
  -10.5107  -37.4271   24.0060 H   0  0  0  0  0  0  0  0  0  0  0  0
  -12.3244  -38.6790   21.0957 H   0  0  0  0  0  0  0  0  0  0  0  0
  -12.8914  -36.0251   24.4056 H   0  0  0  0  0  0  0  0  0  0  0  0
  1  2  1  0
  2  3  1  0
  3  4  1  0
  4  5  2  0
  4  6  1  0
  6  7  1  0
  7  8  1  0
  8  9  1  0
  9 10  1  0
 10 11  1  0
 11 12  1  0
 12 13  1  0
 13 14  1  0
 14 15  1  0
 15 16  1  0
 16 17  2  0
 16 18  1  0
 11 19  1  0
 19  8  1  0
 15 11  1  0
  1 20  1  0
  1 21  1  0
  1 22  1  0
  2 23  1  0
  2 24  1  0
  3 25  1  0
  3 26  1  0
  6 27  1  0
  7 28  1  0
  7 29  1  0
  8 30  1  0
  9 31  1  0
 10 32  1  0
 10 33  1  0
 12 34  1  0
 12 35  1  0
 14 36  1  0
 14 37  1  0
 15 38  1  0
 18 39  1  0
 19 40  1  0
M  END
>  <Energy>  (410) 
0.33092714907416365

>  <compound_id>  (410) 
1731

>  <target_id>  (410) 
1

>  <reference_id>  (410) 
19

>  <inspiration_ids>  (410) 
[19, 138]

>  <energy_score>  (410) 
-45.6298240061455

>  <distance_score>  (410) 
2.636458311763481

>  <path>  (410) 
/opt/xchem-fragalysis-2/maxwin/BulkDock/SCRATCH/505732/C1731-P19/C1731-P19.minimised.mol

>  <scratch_subdir>  (410) 
/opt/xchem-fragalysis-2/maxwin/BulkDock/SCRATCH/505732/C1731-P19

>  <fragmenstein_runtime>  (410) 
4.3829333782196045

>  <fragmenstein_outcome>  (410) 
too moved

>  <fragmenstein_mode>  (410) 
expansion

>  <fragmenstein_error>  (410) 


$$$$
C1731-P138
     RDKit          3D

 40 41  0  0  0  0  0  0  0  0999 V2000
  -18.0125  -34.8940   23.4494 C   0  0  0  0  0  0  0  0  0  0  0  0
  -17.4444  -36.2115   23.9548 C   0  0  0  0  0  0  0  0  0  0  0  0
  -15.9502  -36.1497   24.2578 C   0  0  0  0  0  0  0  0  0  0  0  0
  -15.1104  -36.0979   22.9846 C   0  0  0  0  0  0  0  0  0  0  0  0
  -14.8156  -37.0569   22.3905 O   0  0  0  0  0  0  0  0  0  0  0  0
  -14.7745  -34.6110   22.7186 N   0  0  0  0  0  0  0  0  0  0  0  0
  -14.0826  -33.9863   21.6080 C   0  0  0  0  0  0  0  0  0  0  0  0
  -12.5431  -34.2026   21.6458 C   0  0  0  0  0  0  0  0  0  0  0  0
  -12.1545  -35.5924   21.4637 N   0  0  0  0  0  0  0  0  0  0  0  0
  -11.4937  -36.0242   22.6912 C   0  0  0  0  0  0  0  0  0  0  0  0
  -10.8601  -34.7372   23.2025 C   0  0  0  0  0  0  0  0  0  0  0  0
   -9.5752  -34.4113   22.3996 C   0  0  0  0  0  0  0  0  0  0  0  0
   -8.2100  -35.2249   23.2848 S   0  0  0  0  0  0  0  0  0  0  0  0
   -9.1911  -35.6631   24.7375 C   0  0  0  0  0  0  0  0  0  0  0  0
  -10.4281  -34.7761   24.6810 C   0  0  0  0  0  0  0  0  0  0  0  0
  -11.5196  -35.2425   25.6163 C   0  0  0  0  0  0  0  0  0  0  0  0
  -12.7033  -34.9458   25.5336 O   0  0  0  0  0  0  0  0  0  0  0  0
  -11.0871  -35.9904   26.6456 O   0  0  0  0  0  0  0  0  0  0  0  0
  -11.9546  -33.7732   22.9248 N   0  0  0  0  0  0  0  0  0  0  0  0
  -19.0985  -34.9725   23.3356 H   0  0  0  0  0  0  0  0  0  0  0  0
  -17.8039  -34.0800   24.1508 H   0  0  0  0  0  0  0  0  0  0  0  0
  -17.5959  -34.6274   22.4736 H   0  0  0  0  0  0  0  0  0  0  0  0
  -17.9753  -36.4877   24.8735 H   0  0  0  0  0  0  0  0  0  0  0  0
  -17.6491  -36.9966   23.2175 H   0  0  0  0  0  0  0  0  0  0  0  0
  -15.7142  -35.3147   24.9262 H   0  0  0  0  0  0  0  0  0  0  0  0
  -15.6503  -37.0581   24.7954 H   0  0  0  0  0  0  0  0  0  0  0  0
  -15.2613  -34.0290   23.3894 H   0  0  0  0  0  0  0  0  0  0  0  0
  -14.4965  -34.4045   20.6841 H   0  0  0  0  0  0  0  0  0  0  0  0
  -14.3188  -32.9215   21.6421 H   0  0  0  0  0  0  0  0  0  0  0  0
  -12.0987  -33.6127   20.8359 H   0  0  0  0  0  0  0  0  0  0  0  0
  -12.9823  -36.1800   21.3184 H   0  0  0  0  0  0  0  0  0  0  0  0
  -10.7699  -36.8150   22.4708 H   0  0  0  0  0  0  0  0  0  0  0  0
  -12.2341  -36.4367   23.3843 H   0  0  0  0  0  0  0  0  0  0  0  0
   -9.6005  -34.7664   21.3645 H   0  0  0  0  0  0  0  0  0  0  0  0
   -9.3664  -33.3403   22.3667 H   0  0  0  0  0  0  0  0  0  0  0  0
   -9.4400  -36.7288   24.6920 H   0  0  0  0  0  0  0  0  0  0  0  0
   -8.6092  -35.4910   25.6485 H   0  0  0  0  0  0  0  0  0  0  0  0
  -10.1562  -33.7702   25.0254 H   0  0  0  0  0  0  0  0  0  0  0  0
  -11.8938  -36.2257   27.1521 H   0  0  0  0  0  0  0  0  0  0  0  0
  -12.6867  -33.9492   23.6244 H   0  0  0  0  0  0  0  0  0  0  0  0
  1  2  1  0
  2  3  1  0
  3  4  1  0
  4  5  2  0
  4  6  1  0
  6  7  1  0
  7  8  1  0
  8  9  1  0
  9 10  1  0
 10 11  1  0
 11 12  1  0
 12 13  1  0
 13 14  1  0
 14 15  1  0
 15 16  1  0
 16 17  2  0
 16 18  1  0
 11 19  1  0
 19  8  1  0
 15 11  1  0
  1 20  1  0
  1 21  1  0
  1 22  1  0
  2 23  1  0
  2 24  1  0
  3 25  1  0
  3 26  1  0
  6 27  1  0
  7 28  1  0
  7 29  1  0
  8 30  1  0
  9 31  1  0
 10 32  1  0
 10 33  1  0
 12 34  1  0
 12 35  1  0
 14 36  1  0
 14 37  1  0
 15 38  1  0
 18 39  1  0
 19 40  1  0
M  END
>  <Energy>  (411) 
-7.127194885922906

>  <compound_id>  (411) 
1731

>  <target_id>  (411) 
1

>  <reference_id>  (411) 
138

>  <inspiration_ids>  (411) 
[19, 138]

>  <energy_score>  (411) 
-53.08794604114165

>  <distance_score>  (411) 
3.4429213026375822

>  <path>  (411) 
/opt/xchem-fragalysis-2/maxwin/BulkDock/SCRATCH/505732/C1731-P138/C1731-P138.minimised.mol

>  <scratch_subdir>  (411) 
/opt/xchem-fragalysis-2/maxwin/BulkDock/SCRATCH/505732/C1731-P138

>  <fragmenstein_runtime>  (411) 
3.6640639305114746

>  <fragmenstein_outcome>  (411) 
too moved

>  <fragmenstein_mode>  (411) 
expansion

>  <fragmenstein_error>  (411) 


$$$$
C1733-P20
     RDKit          3D

 28 29  0  0  0  0  0  0  0  0999 V2000
   14.3058   -2.3586   12.9449 O   0  0  0  0  0  0  0  0  0  0  0  0
   14.4393   -1.5239   14.0764 C   0  0  0  0  0  0  0  0  0  0  0  0
   14.6174   -0.2147   13.5562 O   0  0  0  0  0  0  0  0  0  0  0  0
   15.6094   -1.9538   15.0066 C   0  0  0  0  0  0  0  0  0  0  0  0
   15.8322   -3.2459   15.6275 C   0  0  0  0  0  0  0  0  0  0  0  0
   16.9658   -3.2998   16.4086 C   0  0  0  0  0  0  0  0  0  0  0  0
   17.7769   -1.8053   16.4511 S   0  0  0  0  0  0  0  0  0  0  0  0
   16.6083   -1.0897   15.4350 C   0  0  0  0  0  0  0  0  0  0  0  0
   13.1702   -1.5261   14.9531 C   0  0  0  0  0  0  0  0  0  0  0  0
   12.4002   -2.6980   14.9705 C   0  0  0  0  0  0  0  0  0  0  0  0
   12.3098   -3.3999   16.1633 C   0  0  0  0  0  0  0  0  0  0  0  0
   12.9553   -2.8851   17.2790 C   0  0  0  0  0  0  0  0  0  0  0  0
   13.4029   -1.5576   17.2663 C   0  0  0  0  0  0  0  0  0  0  0  0
   13.2516   -0.7976   16.1288 C   0  0  0  0  0  0  0  0  0  0  0  0
   13.4620    0.5437   16.2152 O   0  0  0  0  0  0  0  0  0  0  0  0
   12.5406    1.3016   15.4246 C   0  0  0  0  0  0  0  0  0  0  0  0
   12.7425    2.6142   15.7233 F   0  0  0  0  0  0  0  0  0  0  0  0
   11.2607    1.0289   15.8022 F   0  0  0  0  0  0  0  0  0  0  0  0
   15.1324   -2.8640   12.8597 H   0  0  0  0  0  0  0  0  0  0  0  0
   15.4257   -0.2837   13.0255 H   0  0  0  0  0  0  0  0  0  0  0  0
   15.1888   -4.1043   15.5323 H   0  0  0  0  0  0  0  0  0  0  0  0
   17.3443   -4.1445   16.9680 H   0  0  0  0  0  0  0  0  0  0  0  0
   16.7078   -0.0389   15.1957 H   0  0  0  0  0  0  0  0  0  0  0  0
   12.1032   -3.1759   14.0390 H   0  0  0  0  0  0  0  0  0  0  0  0
   11.8503   -4.3824   16.2007 H   0  0  0  0  0  0  0  0  0  0  0  0
   13.0307   -3.4788   18.1874 H   0  0  0  0  0  0  0  0  0  0  0  0
   13.8420   -1.1069   18.1527 H   0  0  0  0  0  0  0  0  0  0  0  0
   12.6576    1.1602   14.3467 H   0  0  0  0  0  0  0  0  0  0  0  0
  1  2  1  0
  2  3  1  0
  2  4  1  0
  4  5  1  0
  5  6  2  0
  6  7  1  0
  7  8  1  0
  2  9  1  0
  9 10  2  0
 10 11  1  0
 11 12  2  0
 12 13  1  0
 13 14  2  0
 14 15  1  0
 15 16  1  0
 16 17  1  0
 16 18  1  0
  8  4  2  0
 14  9  1  0
  1 19  1  0
  3 20  1  0
  5 21  1  0
  6 22  1  0
  8 23  1  0
 10 24  1  0
 11 25  1  0
 12 26  1  0
 13 27  1  0
 16 28  1  0
M  END
>  <Energy>  (412) 
38.918785494473227

>  <compound_id>  (412) 
1733

>  <target_id>  (412) 
1

>  <reference_id>  (412) 
20

>  <inspiration_ids>  (412) 
[20, 5]

>  <energy_score>  (412) 
-12.108692830020416

>  <distance_score>  (412) 
1.5073512702070202

>  <path>  (412) 
/opt/xchem-fragalysis-2/maxwin/BulkDock/SCRATCH/505732/C1733-P20/C1733-P20.minimised.mol

>  <scratch_subdir>  (412) 
/opt/xchem-fragalysis-2/maxwin/BulkDock/SCRATCH/505732/C1733-P20

>  <fragmenstein_runtime>  (412) 
11.856553554534912

>  <fragmenstein_outcome>  (412) 
too moved

>  <fragmenstein_mode>  (412) 
expansion

>  <fragmenstein_error>  (412) 


$$$$
C1733-P5
     RDKit          3D

 28 29  0  0  0  0  0  0  0  0999 V2000
   14.2911   -2.2913   12.9969 O   0  0  0  0  0  0  0  0  0  0  0  0
   14.4226   -1.4950   14.1556 C   0  0  0  0  0  0  0  0  0  0  0  0
   14.6129   -0.1713   13.6791 O   0  0  0  0  0  0  0  0  0  0  0  0
   15.5776   -1.9658   15.0842 C   0  0  0  0  0  0  0  0  0  0  0  0
   15.7660   -3.2754   15.6807 C   0  0  0  0  0  0  0  0  0  0  0  0
   16.8924   -3.3701   16.4680 C   0  0  0  0  0  0  0  0  0  0  0  0
   17.7364   -1.8950   16.5462 S   0  0  0  0  0  0  0  0  0  0  0  0
   16.5908   -1.1321   15.5377 C   0  0  0  0  0  0  0  0  0  0  0  0
   13.1514   -1.5263   15.0259 C   0  0  0  0  0  0  0  0  0  0  0  0
   12.4159   -2.7217   15.0409 C   0  0  0  0  0  0  0  0  0  0  0  0
   12.3077   -3.4063   16.2417 C   0  0  0  0  0  0  0  0  0  0  0  0
   12.8957   -2.8518   17.3719 C   0  0  0  0  0  0  0  0  0  0  0  0
   13.3133   -1.5164   17.3528 C   0  0  0  0  0  0  0  0  0  0  0  0
   13.1985   -0.7801   16.1956 C   0  0  0  0  0  0  0  0  0  0  0  0
   13.4111    0.5623   16.2691 O   0  0  0  0  0  0  0  0  0  0  0  0
   12.4867    1.3079   15.4722 C   0  0  0  0  0  0  0  0  0  0  0  0
   12.7043    2.6261   15.7331 F   0  0  0  0  0  0  0  0  0  0  0  0
   11.2107    1.0558   15.8763 F   0  0  0  0  0  0  0  0  0  0  0  0
   15.1345   -2.7579   12.8720 H   0  0  0  0  0  0  0  0  0  0  0  0
   15.4422   -0.2169   13.1798 H   0  0  0  0  0  0  0  0  0  0  0  0
   15.1001   -4.1153   15.5636 H   0  0  0  0  0  0  0  0  0  0  0  0
   17.2483   -4.2332   17.0136 H   0  0  0  0  0  0  0  0  0  0  0  0
   16.7145   -0.0787   15.3227 H   0  0  0  0  0  0  0  0  0  0  0  0
   12.1608   -3.2226   14.1096 H   0  0  0  0  0  0  0  0  0  0  0  0
   11.8814   -4.4042   16.2774 H   0  0  0  0  0  0  0  0  0  0  0  0
   12.9592   -3.4273   18.2926 H   0  0  0  0  0  0  0  0  0  0  0  0
   13.7163   -1.0439   18.2445 H   0  0  0  0  0  0  0  0  0  0  0  0
   12.5843    1.1377   14.3965 H   0  0  0  0  0  0  0  0  0  0  0  0
  1  2  1  0
  2  3  1  0
  2  4  1  0
  4  5  1  0
  5  6  2  0
  6  7  1  0
  7  8  1  0
  2  9  1  0
  9 10  2  0
 10 11  1  0
 11 12  2  0
 12 13  1  0
 13 14  2  0
 14 15  1  0
 15 16  1  0
 16 17  1  0
 16 18  1  0
  8  4  2  0
 14  9  1  0
  1 19  1  0
  3 20  1  0
  5 21  1  0
  6 22  1  0
  8 23  1  0
 10 24  1  0
 11 25  1  0
 12 26  1  0
 13 27  1  0
 16 28  1  0
M  END
>  <Energy>  (413) 
36.420787147720759

>  <compound_id>  (413) 
1733

>  <target_id>  (413) 
1

>  <reference_id>  (413) 
5

>  <inspiration_ids>  (413) 
[20, 5]

>  <energy_score>  (413) 
-14.606691176774333

>  <distance_score>  (413) 
1.4670009226918255

>  <path>  (413) 
/opt/xchem-fragalysis-2/maxwin/BulkDock/SCRATCH/505732/C1733-P5/C1733-P5.minimised.mol

>  <scratch_subdir>  (413) 
/opt/xchem-fragalysis-2/maxwin/BulkDock/SCRATCH/505732/C1733-P5

>  <fragmenstein_runtime>  (413) 
12.023207187652588

>  <fragmenstein_outcome>  (413) 
too moved

>  <fragmenstein_mode>  (413) 
expansion

>  <fragmenstein_error>  (413) 


$$$$
C1736-P20
     RDKit          3D

 33 33  0  0  0  0  0  0  0  0999 V2000
   12.6334    0.7729   14.8421 C   0  0  0  0  0  0  0  0  0  0  0  0
   12.5136   -0.6294   15.2854 C   0  0  0  0  0  0  0  0  0  0  0  0
   10.9735   -1.3333   15.1841 S   0  0  0  0  0  0  0  0  0  0  0  0
   11.5752   -2.8329   15.6332 C   0  0  0  0  0  0  0  0  0  0  0  0
   12.8920   -2.7918   16.0462 C   0  0  0  0  0  0  0  0  0  0  0  0
   13.5076   -3.9944   16.5708 C   0  0  0  0  0  0  0  0  0  0  0  0
   14.6704   -4.1377   16.9066 O   0  0  0  0  0  0  0  0  0  0  0  0
   12.6468   -5.0322   16.5664 O   0  0  0  0  0  0  0  0  0  0  0  0
   13.4812   -1.4899   15.7906 C   0  0  0  0  0  0  0  0  0  0  0  0
   14.9068   -1.1071   16.0871 C   0  0  0  0  0  0  0  0  0  0  0  0
   15.6412   -0.5942   14.9277 N   0  0  0  0  0  0  0  0  0  0  0  0
   16.2176   -1.5339   13.9419 C   0  0  0  0  0  0  0  0  0  0  0  0
   15.2018   -1.9359   12.8652 C   0  0  0  0  0  0  0  0  0  0  0  0
   17.3293   -0.7219   13.2349 C   0  0  0  0  0  0  0  0  0  0  0  0
   16.8672   -2.7800   14.5924 C   0  0  0  0  0  0  0  0  0  0  0  0
   17.7234   -2.3979   15.6722 O   0  0  0  0  0  0  0  0  0  0  0  0
   13.3650    1.3177   15.4479 H   0  0  0  0  0  0  0  0  0  0  0  0
   11.6902    1.3245   14.9253 H   0  0  0  0  0  0  0  0  0  0  0  0
   12.9548    0.8170   13.7959 H   0  0  0  0  0  0  0  0  0  0  0  0
   10.9195   -3.6914   15.6127 H   0  0  0  0  0  0  0  0  0  0  0  0
   13.1463   -5.8540   16.3698 H   0  0  0  0  0  0  0  0  0  0  0  0
   14.8670   -0.2888   16.8189 H   0  0  0  0  0  0  0  0  0  0  0  0
   15.4444   -1.8981   16.6088 H   0  0  0  0  0  0  0  0  0  0  0  0
   15.1006    0.1209   14.4500 H   0  0  0  0  0  0  0  0  0  0  0  0
   15.6618   -2.5778   12.1059 H   0  0  0  0  0  0  0  0  0  0  0  0
   14.3524   -2.4749   13.2866 H   0  0  0  0  0  0  0  0  0  0  0  0
   14.7988   -1.0570   12.3475 H   0  0  0  0  0  0  0  0  0  0  0  0
   17.8352   -1.3285   12.4744 H   0  0  0  0  0  0  0  0  0  0  0  0
   16.9220    0.1624   12.7293 H   0  0  0  0  0  0  0  0  0  0  0  0
   18.0939   -0.3743   13.9396 H   0  0  0  0  0  0  0  0  0  0  0  0
   16.1162   -3.4701   14.9800 H   0  0  0  0  0  0  0  0  0  0  0  0
   17.4774   -3.3302   13.8688 H   0  0  0  0  0  0  0  0  0  0  0  0
   17.4593   -1.4928   15.9217 H   0  0  0  0  0  0  0  0  0  0  0  0
  1  2  1  0
  2  3  1  0
  3  4  1  0
  4  5  2  0
  5  6  1  0
  6  7  2  0
  6  8  1  0
  5  9  1  0
  9 10  1  0
 10 11  1  0
 11 12  1  0
 12 13  1  0
 12 14  1  0
 12 15  1  0
 15 16  1  0
  9  2  2  0
  1 17  1  0
  1 18  1  0
  1 19  1  0
  4 20  1  0
  8 21  1  0
 10 22  1  0
 10 23  1  0
 11 24  1  0
 13 25  1  0
 13 26  1  0
 13 27  1  0
 14 28  1  0
 14 29  1  0
 14 30  1  0
 15 31  1  0
 15 32  1  0
 16 33  1  0
M  END
>  <Energy>  (414) 
17.221260475722218

>  <compound_id>  (414) 
1736

>  <target_id>  (414) 
1

>  <reference_id>  (414) 
20

>  <inspiration_ids>  (414) 
[20, 12]

>  <energy_score>  (414) 
-59.46688324005237

>  <distance_score>  (414) 
1.6688557594824498

>  <path>  (414) 
/opt/xchem-fragalysis-2/maxwin/BulkDock/SCRATCH/505732/C1736-P20/C1736-P20.minimised.mol

>  <scratch_subdir>  (414) 
/opt/xchem-fragalysis-2/maxwin/BulkDock/SCRATCH/505732/C1736-P20

>  <fragmenstein_runtime>  (414) 
17.25852632522583

>  <fragmenstein_outcome>  (414) 
too moved

>  <fragmenstein_mode>  (414) 
expansion

>  <fragmenstein_error>  (414) 


$$$$
C1736-P12
     RDKit          3D

 33 33  0  0  0  0  0  0  0  0999 V2000
   12.1890   -0.4163   14.2670 C   0  0  0  0  0  0  0  0  0  0  0  0
   12.5012   -1.5563   15.1654 C   0  0  0  0  0  0  0  0  0  0  0  0
   11.3843   -2.8356   15.2023 S   0  0  0  0  0  0  0  0  0  0  0  0
   12.2581   -3.6476   16.3981 C   0  0  0  0  0  0  0  0  0  0  0  0
   13.3848   -2.9649   16.8092 C   0  0  0  0  0  0  0  0  0  0  0  0
   14.2249   -3.4826   17.8846 C   0  0  0  0  0  0  0  0  0  0  0  0
   15.4455   -3.4061   17.8867 O   0  0  0  0  0  0  0  0  0  0  0  0
   13.5500   -4.0988   18.8952 O   0  0  0  0  0  0  0  0  0  0  0  0
   13.6035   -1.7749   15.9878 C   0  0  0  0  0  0  0  0  0  0  0  0
   14.7946   -0.8472   16.1021 C   0  0  0  0  0  0  0  0  0  0  0  0
   15.4076   -0.5429   14.8185 N   0  0  0  0  0  0  0  0  0  0  0  0
   16.2819   -1.5199   14.1404 C   0  0  0  0  0  0  0  0  0  0  0  0
   15.6423   -1.8841   12.7849 C   0  0  0  0  0  0  0  0  0  0  0  0
   17.5850   -0.7444   13.8489 C   0  0  0  0  0  0  0  0  0  0  0  0
   16.6414   -2.8252   14.8997 C   0  0  0  0  0  0  0  0  0  0  0  0
   17.3397   -2.5566   16.1123 O   0  0  0  0  0  0  0  0  0  0  0  0
   12.5799    0.5209   14.6768 H   0  0  0  0  0  0  0  0  0  0  0  0
   11.1117   -0.2712   14.1340 H   0  0  0  0  0  0  0  0  0  0  0  0
   12.6381   -0.5724   13.2819 H   0  0  0  0  0  0  0  0  0  0  0  0
   11.8998   -4.6078   16.7420 H   0  0  0  0  0  0  0  0  0  0  0  0
   12.5723   -3.9913   18.8701 H   0  0  0  0  0  0  0  0  0  0  0  0
   15.5246   -1.1744   16.8412 H   0  0  0  0  0  0  0  0  0  0  0  0
   14.4148    0.0997   16.5093 H   0  0  0  0  0  0  0  0  0  0  0  0
   14.7546   -0.1127   14.1751 H   0  0  0  0  0  0  0  0  0  0  0  0
   16.2992   -2.5368   12.2003 H   0  0  0  0  0  0  0  0  0  0  0  0
   14.6841   -2.3939   12.9182 H   0  0  0  0  0  0  0  0  0  0  0  0
   15.4544   -0.9920   12.1748 H   0  0  0  0  0  0  0  0  0  0  0  0
   18.3025   -1.3709   13.3062 H   0  0  0  0  0  0  0  0  0  0  0  0
   17.3973    0.1435   13.2324 H   0  0  0  0  0  0  0  0  0  0  0  0
   18.0708   -0.4067   14.7720 H   0  0  0  0  0  0  0  0  0  0  0  0
   15.7537   -3.4237   15.1174 H   0  0  0  0  0  0  0  0  0  0  0  0
   17.3011   -3.4500   14.2873 H   0  0  0  0  0  0  0  0  0  0  0  0
   16.8281   -2.9714   16.8390 H   0  0  0  0  0  0  0  0  0  0  0  0
  1  2  1  0
  2  3  1  0
  3  4  1  0
  4  5  2  0
  5  6  1  0
  6  7  2  0
  6  8  1  0
  5  9  1  0
  9 10  1  0
 10 11  1  0
 11 12  1  0
 12 13  1  0
 12 14  1  0
 12 15  1  0
 15 16  1  0
  9  2  2  0
  1 17  1  0
  1 18  1  0
  1 19  1  0
  4 20  1  0
  8 21  1  0
 10 22  1  0
 10 23  1  0
 11 24  1  0
 13 25  1  0
 13 26  1  0
 13 27  1  0
 14 28  1  0
 14 29  1  0
 14 30  1  0
 15 31  1  0
 15 32  1  0
 16 33  1  0
M  END
>  <Energy>  (415) 
21.43053108372888

>  <compound_id>  (415) 
1736

>  <target_id>  (415) 
1

>  <reference_id>  (415) 
12

>  <inspiration_ids>  (415) 
[20, 12]

>  <energy_score>  (415) 
-55.257612632045365

>  <distance_score>  (415) 
1.3080145495067028

>  <path>  (415) 
/opt/xchem-fragalysis-2/maxwin/BulkDock/SCRATCH/505732/C1736-P12/C1736-P12.minimised.mol

>  <scratch_subdir>  (415) 
/opt/xchem-fragalysis-2/maxwin/BulkDock/SCRATCH/505732/C1736-P12

>  <fragmenstein_runtime>  (415) 
17.527053356170654

>  <fragmenstein_outcome>  (415) 
too moved

>  <fragmenstein_mode>  (415) 
expansion

>  <fragmenstein_error>  (415) 


$$$$
C1123-P20
     RDKit          3D

 45 46  0  0  0  0  0  0  0  0999 V2000
   15.3485   -4.1960   16.6259 C   0  0  0  0  0  0  0  0  0  0  0  0
   14.8511   -2.7861   16.7892 C   0  0  0  0  0  0  0  0  0  0  0  0
   15.5546   -2.2311   18.0397 C   0  0  0  0  0  0  0  0  0  0  0  0
   14.9300   -0.9300   18.5100 C   0  0  0  0  0  0  0  0  0  0  0  0
   14.1164   -0.2788   17.4008 C   0  0  0  0  0  0  0  0  0  0  0  0
   13.0326   -1.1098   16.8004 N   0  0  0  0  0  0  0  0  0  0  0  0
   12.2220   -0.3681   15.4791 S   0  0  0  0  0  0  0  0  0  0  0  0
   10.4576   -0.3871   15.6422 C   0  0  0  0  0  0  0  0  0  0  0  0
   12.5929    1.0193   15.6442 O   0  0  0  0  0  0  0  0  0  0  0  0
   12.4734   -1.2116   14.2335 N   0  0  0  0  0  0  0  0  0  0  0  0
   13.7472   -1.3897   13.5924 C   0  0  0  0  0  0  0  0  0  0  0  0
   14.4675   -0.1576   13.4394 N   0  0  0  0  0  0  0  0  0  0  0  0
   13.8668    0.8856   13.0073 C   0  0  0  0  0  0  0  0  0  0  0  0
   12.5820    0.9437   12.6008 O   0  0  0  0  0  0  0  0  0  0  0  0
   14.5652    2.1414   13.0207 C   0  0  0  0  0  0  0  0  0  0  0  0
   15.9839    2.2968   13.0084 C   0  0  0  0  0  0  0  0  0  0  0  0
   16.3602    3.6154   13.0908 C   0  0  0  0  0  0  0  0  0  0  0  0
   15.0194    4.6619   13.2413 S   0  0  0  0  0  0  0  0  0  0  0  0
   13.9252    3.3582   13.1579 C   0  0  0  0  0  0  0  0  0  0  0  0
   13.3185   -2.5581   16.9139 C   0  0  0  0  0  0  0  0  0  0  0  0
   12.3607   -3.4541   16.1131 C   0  0  0  0  0  0  0  0  0  0  0  0
   12.3673   -4.7553   16.6803 O   0  0  0  0  0  0  0  0  0  0  0  0
   15.2202   -4.7513   17.5566 H   0  0  0  0  0  0  0  0  0  0  0  0
   16.4199   -4.2067   16.3938 H   0  0  0  0  0  0  0  0  0  0  0  0
   14.8430   -4.7074   15.8213 H   0  0  0  0  0  0  0  0  0  0  0  0
   15.2306   -2.2277   15.9285 H   0  0  0  0  0  0  0  0  0  0  0  0
   16.6151   -2.0653   17.8095 H   0  0  0  0  0  0  0  0  0  0  0  0
   15.5308   -2.9468   18.8714 H   0  0  0  0  0  0  0  0  0  0  0  0
   14.3005   -1.1172   19.3857 H   0  0  0  0  0  0  0  0  0  0  0  0
   15.7156   -0.2447   18.8497 H   0  0  0  0  0  0  0  0  0  0  0  0
   14.8129    0.0253   16.6071 H   0  0  0  0  0  0  0  0  0  0  0  0
   13.6896    0.6435   17.8096 H   0  0  0  0  0  0  0  0  0  0  0  0
   10.0398    0.0538   14.7318 H   0  0  0  0  0  0  0  0  0  0  0  0
   10.0901   -1.4058   15.7388 H   0  0  0  0  0  0  0  0  0  0  0  0
   10.1451    0.2370   16.4749 H   0  0  0  0  0  0  0  0  0  0  0  0
   14.3616   -2.1028   14.1352 H   0  0  0  0  0  0  0  0  0  0  0  0
   13.5953   -1.8467   12.6097 H   0  0  0  0  0  0  0  0  0  0  0  0
   12.1249    0.1317   12.8989 H   0  0  0  0  0  0  0  0  0  0  0  0
   16.6895    1.4775   12.9427 H   0  0  0  0  0  0  0  0  0  0  0  0
   17.3638    4.0176   13.0954 H   0  0  0  0  0  0  0  0  0  0  0  0
   12.8604    3.5346   13.2355 H   0  0  0  0  0  0  0  0  0  0  0  0
   13.0993   -2.8444   17.9491 H   0  0  0  0  0  0  0  0  0  0  0  0
   12.6158   -3.5291   15.0638 H   0  0  0  0  0  0  0  0  0  0  0  0
   11.3351   -3.0961   16.1886 H   0  0  0  0  0  0  0  0  0  0  0  0
   11.5647   -5.2057   16.3540 H   0  0  0  0  0  0  0  0  0  0  0  0
  1  2  1  0
  2  3  1  0
  3  4  1  0
  4  5  1  0
  5  6  1  0
  6  7  1  0
  7  8  1  0
  7  9  2  0
  7 10  2  0
 10 11  1  0
 11 12  1  0
 12 13  2  3
 13 14  1  0
 13 15  1  0
 15 16  1  0
 16 17  2  0
 17 18  1  0
 18 19  1  0
  6 20  1  0
 20 21  1  0
 21 22  1  0
 20  2  1  0
 19 15  2  0
  1 23  1  0
  1 24  1  0
  1 25  1  0
  2 26  1  0
  3 27  1  0
  3 28  1  0
  4 29  1  0
  4 30  1  0
  5 31  1  0
  5 32  1  0
  8 33  1  0
  8 34  1  0
  8 35  1  0
 11 36  1  0
 11 37  1  0
 14 38  1  0
 16 39  1  0
 17 40  1  0
 19 41  1  0
 20 42  1  0
 21 43  1  0
 21 44  1  0
 22 45  1  0
M  END
>  <Energy>  (416) 
-102.74829831066164

>  <compound_id>  (416) 
1123

>  <target_id>  (416) 
1

>  <reference_id>  (416) 
20

>  <inspiration_ids>  (416) 
[20, 26]

>  <energy_score>  (416) 
-68.04605994678806

>  <distance_score>  (416) 
1.9714892264373065

>  <path>  (416) 
/opt/xchem-fragalysis-2/maxwin/BulkDock/SCRATCH/505732/C1123-P20/C1123-P20.minimised.mol

>  <scratch_subdir>  (416) 
/opt/xchem-fragalysis-2/maxwin/BulkDock/SCRATCH/505732/C1123-P20

>  <fragmenstein_runtime>  (416) 
3.182600736618042

>  <fragmenstein_outcome>  (416) 
too moved

>  <fragmenstein_mode>  (416) 
expansion

>  <fragmenstein_error>  (416) 


$$$$
C1123-P26
     RDKit          3D

 45 46  0  0  0  0  0  0  0  0999 V2000
   15.5692   -4.1836   16.0631 C   0  0  0  0  0  0  0  0  0  0  0  0
   14.9928   -3.0216   16.8331 C   0  0  0  0  0  0  0  0  0  0  0  0
   15.6460   -2.8898   18.2164 C   0  0  0  0  0  0  0  0  0  0  0  0
   14.9714   -1.7655   19.0094 C   0  0  0  0  0  0  0  0  0  0  0  0
   14.2147   -0.8120   18.0739 C   0  0  0  0  0  0  0  0  0  0  0  0
   13.1686   -1.4572   17.2153 N   0  0  0  0  0  0  0  0  0  0  0  0
   12.6876   -0.5302   15.8443 S   0  0  0  0  0  0  0  0  0  0  0  0
   10.9250   -0.5464   15.6444 C   0  0  0  0  0  0  0  0  0  0  0  0
   13.0363    0.8188   16.2316 O   0  0  0  0  0  0  0  0  0  0  0  0
   13.3278   -1.3224   14.7112 N   0  0  0  0  0  0  0  0  0  0  0  0
   12.8730   -1.1842   13.3628 C   0  0  0  0  0  0  0  0  0  0  0  0
   13.5267   -0.0180   12.8638 N   0  0  0  0  0  0  0  0  0  0  0  0
   12.9533    1.1188   12.8574 C   0  0  0  0  0  0  0  0  0  0  0  0
   11.6284    1.3649   12.9011 O   0  0  0  0  0  0  0  0  0  0  0  0
   13.8133    2.2789   12.8846 C   0  0  0  0  0  0  0  0  0  0  0  0
   15.2308    2.2482   12.6614 C   0  0  0  0  0  0  0  0  0  0  0  0
   15.8190    3.4756   12.8436 C   0  0  0  0  0  0  0  0  0  0  0  0
   14.6874    4.6607   13.3215 S   0  0  0  0  0  0  0  0  0  0  0  0
   13.4003    3.5401   13.2657 C   0  0  0  0  0  0  0  0  0  0  0  0
   13.4563   -2.9094   17.0510 C   0  0  0  0  0  0  0  0  0  0  0  0
   12.5584   -3.7163   16.0970 C   0  0  0  0  0  0  0  0  0  0  0  0
   11.1758   -3.5330   16.3068 O   0  0  0  0  0  0  0  0  0  0  0  0
   16.4248   -4.6403   16.5710 H   0  0  0  0  0  0  0  0  0  0  0  0
   15.9382   -3.8415   15.0893 H   0  0  0  0  0  0  0  0  0  0  0  0
   14.8299   -4.9453   15.8680 H   0  0  0  0  0  0  0  0  0  0  0  0
   15.3336   -2.1559   16.2467 H   0  0  0  0  0  0  0  0  0  0  0  0
   16.7128   -2.6638   18.0964 H   0  0  0  0  0  0  0  0  0  0  0  0
   15.5812   -3.8283   18.7804 H   0  0  0  0  0  0  0  0  0  0  0  0
   14.2797   -2.1944   19.7446 H   0  0  0  0  0  0  0  0  0  0  0  0
   15.7244   -1.2130   19.5830 H   0  0  0  0  0  0  0  0  0  0  0  0
   14.9638   -0.3176   17.4398 H   0  0  0  0  0  0  0  0  0  0  0  0
   13.7580   -0.0167   18.6698 H   0  0  0  0  0  0  0  0  0  0  0  0
   10.6622    0.1595   14.8572 H   0  0  0  0  0  0  0  0  0  0  0  0
   10.5590   -1.5293   15.3666 H   0  0  0  0  0  0  0  0  0  0  0  0
   10.4410   -0.1876   16.5404 H   0  0  0  0  0  0  0  0  0  0  0  0
   13.2244   -2.0496   12.7922 H   0  0  0  0  0  0  0  0  0  0  0  0
   11.7877   -1.1945   13.2879 H   0  0  0  0  0  0  0  0  0  0  0  0
   11.0756    0.5816   12.7574 H   0  0  0  0  0  0  0  0  0  0  0  0
   15.7856    1.3548   12.3986 H   0  0  0  0  0  0  0  0  0  0  0  0
   16.8651    3.7293   12.7440 H   0  0  0  0  0  0  0  0  0  0  0  0
   12.4020    3.8509   13.5421 H   0  0  0  0  0  0  0  0  0  0  0  0
   13.2122   -3.3578   18.0257 H   0  0  0  0  0  0  0  0  0  0  0  0
   12.7523   -4.7758   16.2831 H   0  0  0  0  0  0  0  0  0  0  0  0
   12.7301   -3.5038   15.0556 H   0  0  0  0  0  0  0  0  0  0  0  0
   10.7341   -4.3189   15.9201 H   0  0  0  0  0  0  0  0  0  0  0  0
  1  2  1  0
  2  3  1  0
  3  4  1  0
  4  5  1  0
  5  6  1  0
  6  7  1  0
  7  8  1  0
  7  9  2  0
  7 10  2  0
 10 11  1  0
 11 12  1  0
 12 13  2  3
 13 14  1  0
 13 15  1  0
 15 16  1  0
 16 17  2  0
 17 18  1  0
 18 19  1  0
  6 20  1  0
 20 21  1  0
 21 22  1  0
 20  2  1  0
 19 15  2  0
  1 23  1  0
  1 24  1  0
  1 25  1  0
  2 26  1  0
  3 27  1  0
  3 28  1  0
  4 29  1  0
  4 30  1  0
  5 31  1  0
  5 32  1  0
  8 33  1  0
  8 34  1  0
  8 35  1  0
 11 36  1  0
 11 37  1  0
 14 38  1  0
 16 39  1  0
 17 40  1  0
 19 41  1  0
 20 42  1  0
 21 43  1  0
 21 44  1  0
 22 45  1  0
M  END
>  <Energy>  (417) 
-84.941200117925689

>  <compound_id>  (417) 
1123

>  <target_id>  (417) 
1

>  <reference_id>  (417) 
26

>  <inspiration_ids>  (417) 
[20, 26]

>  <energy_score>  (417) 
-50.23896175405358

>  <distance_score>  (417) 
1.8947171829123794

>  <path>  (417) 
/opt/xchem-fragalysis-2/maxwin/BulkDock/SCRATCH/505732/C1123-P26/C1123-P26.minimised.mol

>  <scratch_subdir>  (417) 
/opt/xchem-fragalysis-2/maxwin/BulkDock/SCRATCH/505732/C1123-P26

>  <fragmenstein_runtime>  (417) 
2.6191134452819824

>  <fragmenstein_outcome>  (417) 
too moved

>  <fragmenstein_mode>  (417) 
expansion

>  <fragmenstein_error>  (417) 


$$$$
C1737-P20
     RDKit          3D

 24 24  0  0  0  0  0  0  0  0999 V2000
   17.3702    2.8330   17.8774 C   0  0  0  0  0  0  0  0  0  0  0  0
   16.4959    1.7918   17.2542 N   0  0  0  0  0  0  0  0  0  0  0  0
   17.8149    1.0560   17.2480 C   0  0  0  0  0  0  0  0  0  0  0  0
   15.3825    0.9300   17.8623 C   0  0  0  0  0  0  0  0  0  0  0  0
   15.0157    0.8349   18.9794 O   0  0  0  0  0  0  0  0  0  0  0  0
   14.6559    0.1909   16.6286 C   0  0  0  0  0  0  0  0  0  0  0  0
   13.3619    0.7720   16.4688 O   0  0  0  0  0  0  0  0  0  0  0  0
   15.3227    0.3695   15.3905 O   0  0  0  0  0  0  0  0  0  0  0  0
   14.5301   -1.2983   16.9134 C   0  0  0  0  0  0  0  0  0  0  0  0
   15.5103   -2.1161   17.5830 C   0  0  0  0  0  0  0  0  0  0  0  0
   15.1184   -3.4286   17.7199 C   0  0  0  0  0  0  0  0  0  0  0  0
   13.5817   -3.7088   17.0455 S   0  0  0  0  0  0  0  0  0  0  0  0
   13.4537   -2.0845   16.5282 C   0  0  0  0  0  0  0  0  0  0  0  0
   17.7494    2.5901   18.8822 H   0  0  0  0  0  0  0  0  0  0  0  0
   16.6621    3.6482   18.0884 H   0  0  0  0  0  0  0  0  0  0  0  0
   18.1003    3.2987   17.1990 H   0  0  0  0  0  0  0  0  0  0  0  0
   18.1638    0.7414   18.2445 H   0  0  0  0  0  0  0  0  0  0  0  0
   18.5953    1.4902   16.6043 H   0  0  0  0  0  0  0  0  0  0  0  0
   17.5995    0.0966   16.7565 H   0  0  0  0  0  0  0  0  0  0  0  0
   13.4306    1.6855   16.7903 H   0  0  0  0  0  0  0  0  0  0  0  0
   15.7453    1.2418   15.4756 H   0  0  0  0  0  0  0  0  0  0  0  0
   16.4544   -1.7549   17.9703 H   0  0  0  0  0  0  0  0  0  0  0  0
   15.6629   -4.2318   18.1970 H   0  0  0  0  0  0  0  0  0  0  0  0
   12.5781   -1.7640   15.9787 H   0  0  0  0  0  0  0  0  0  0  0  0
  1  2  1  0
  2  3  1  0
  2  4  1  0
  4  5  2  0
  4  6  1  0
  6  7  1  0
  6  8  1  0
  6  9  1  0
  9 10  1  0
 10 11  2  0
 11 12  1  0
 12 13  1  0
 13  9  2  0
  1 14  1  0
  1 15  1  0
  1 16  1  0
  3 17  1  0
  3 18  1  0
  3 19  1  0
  7 20  1  0
  8 21  1  0
 10 22  1  0
 11 23  1  0
 13 24  1  0
M  END
>  <Energy>  (418) 
122.97273725993534

>  <compound_id>  (418) 
1737

>  <target_id>  (418) 
1

>  <reference_id>  (418) 
20

>  <inspiration_ids>  (418) 
[20, 27]

>  <energy_score>  (418) 
39.80408835769338

>  <distance_score>  (418) 
4.571598238995111

>  <path>  (418) 
/opt/xchem-fragalysis-2/maxwin/BulkDock/SCRATCH/505732/C1737-P20/C1737-P20.minimised.mol

>  <scratch_subdir>  (418) 
/opt/xchem-fragalysis-2/maxwin/BulkDock/SCRATCH/505732/C1737-P20

>  <fragmenstein_runtime>  (418) 
18.733675956726074

>  <fragmenstein_outcome>  (418) 
too moved

>  <fragmenstein_mode>  (418) 
expansion

>  <fragmenstein_error>  (418) 


$$$$
C1737-P27
     RDKit          3D

 24 24  0  0  0  0  0  0  0  0999 V2000
   14.6806   -0.0120   12.0940 C   0  0  0  0  0  0  0  0  0  0  0  0
   14.1273   -0.3355   13.4443 N   0  0  0  0  0  0  0  0  0  0  0  0
   14.8159   -1.6402   13.1303 C   0  0  0  0  0  0  0  0  0  0  0  0
   14.5208    0.1790   14.8313 C   0  0  0  0  0  0  0  0  0  0  0  0
   15.4054    0.8897   15.1598 O   0  0  0  0  0  0  0  0  0  0  0  0
   13.4091   -0.3313   15.8752 C   0  0  0  0  0  0  0  0  0  0  0  0
   13.2484    0.6621   16.8836 O   0  0  0  0  0  0  0  0  0  0  0  0
   12.1399   -0.4806   15.2493 O   0  0  0  0  0  0  0  0  0  0  0  0
   13.8555   -1.6285   16.5229 C   0  0  0  0  0  0  0  0  0  0  0  0
   15.1235   -1.8306   17.1791 C   0  0  0  0  0  0  0  0  0  0  0  0
   15.2671   -3.0992   17.6931 C   0  0  0  0  0  0  0  0  0  0  0  0
   13.8861   -4.0576   17.4246 S   0  0  0  0  0  0  0  0  0  0  0  0
   13.0980   -2.7876   16.5966 C   0  0  0  0  0  0  0  0  0  0  0  0
   15.7770    0.0823   12.0489 H   0  0  0  0  0  0  0  0  0  0  0  0
   14.3523    1.0270   11.9394 H   0  0  0  0  0  0  0  0  0  0  0  0
   14.2241   -0.5512   11.2510 H   0  0  0  0  0  0  0  0  0  0  0  0
   14.3793   -2.2104   12.2963 H   0  0  0  0  0  0  0  0  0  0  0  0
   15.9163   -1.5905   13.1284 H   0  0  0  0  0  0  0  0  0  0  0  0
   14.6114   -2.2761   13.9977 H   0  0  0  0  0  0  0  0  0  0  0  0
   13.7371    1.4442   16.5725 H   0  0  0  0  0  0  0  0  0  0  0  0
   12.3106   -0.3453   14.2984 H   0  0  0  0  0  0  0  0  0  0  0  0
   15.8869   -1.0660   17.2758 H   0  0  0  0  0  0  0  0  0  0  0  0
   16.1141   -3.4994   18.2328 H   0  0  0  0  0  0  0  0  0  0  0  0
   12.1006   -2.9447   16.2070 H   0  0  0  0  0  0  0  0  0  0  0  0
  1  2  1  0
  2  3  1  0
  2  4  1  0
  4  5  2  0
  4  6  1  0
  6  7  1  0
  6  8  1  0
  6  9  1  0
  9 10  1  0
 10 11  2  0
 11 12  1  0
 12 13  1  0
 13  9  2  0
  1 14  1  0
  1 15  1  0
  1 16  1  0
  3 17  1  0
  3 18  1  0
  3 19  1  0
  7 20  1  0
  8 21  1  0
 10 22  1  0
 11 23  1  0
 13 24  1  0
M  END
>  <Energy>  (419) 
119.47524495940928

>  <compound_id>  (419) 
1737

>  <target_id>  (419) 
1

>  <reference_id>  (419) 
27

>  <inspiration_ids>  (419) 
[20, 27]

>  <energy_score>  (419) 
36.30659605716707

>  <distance_score>  (419) 
3.8208095285065964

>  <path>  (419) 
/opt/xchem-fragalysis-2/maxwin/BulkDock/SCRATCH/505732/C1737-P27/C1737-P27.minimised.mol

>  <scratch_subdir>  (419) 
/opt/xchem-fragalysis-2/maxwin/BulkDock/SCRATCH/505732/C1737-P27

>  <fragmenstein_runtime>  (419) 
19.171849250793457

>  <fragmenstein_outcome>  (419) 
too moved

>  <fragmenstein_mode>  (419) 
expansion

>  <fragmenstein_error>  (419) 


$$$$
C1738-P20
     RDKit          3D

 34 35  0  0  0  0  0  0  0  0999 V2000
   16.3754   -1.8680   11.1671 C   0  0  0  0  0  0  0  0  0  0  0  0
   16.7587   -1.4002   12.5563 C   0  0  0  0  0  0  0  0  0  0  0  0
   15.5560   -1.0587   13.3060 N   0  0  0  0  0  0  0  0  0  0  0  0
   15.8778   -0.7685   14.7079 C   0  0  0  0  0  0  0  0  0  0  0  0
   14.6302   -0.5352   15.5793 C   0  0  0  0  0  0  0  0  0  0  0  0
   15.0249   -0.3863   17.0501 C   0  0  0  0  0  0  0  0  0  0  0  0
   15.0417   -2.0567   17.7614 S   0  0  0  0  0  0  0  0  0  0  0  0
   14.1396   -2.8256   16.3802 C   0  0  0  0  0  0  0  0  0  0  0  0
   13.5734   -1.6599   15.5487 C   0  0  0  0  0  0  0  0  0  0  0  0
   12.2343   -1.1729   16.0966 C   0  0  0  0  0  0  0  0  0  0  0  0
   11.2168   -2.1360   15.5316 C   0  0  0  0  0  0  0  0  0  0  0  0
   11.9204   -2.8036   14.3817 C   0  0  0  0  0  0  0  0  0  0  0  0
   13.2001   -2.1199   14.2020 N   0  0  0  0  0  0  0  0  0  0  0  0
   12.8651   -0.8903   13.5012 O   0  0  0  0  0  0  0  0  0  0  0  0
   17.2707   -2.1322   10.5952 H   0  0  0  0  0  0  0  0  0  0  0  0
   15.8429   -1.0847   10.6166 H   0  0  0  0  0  0  0  0  0  0  0  0
   15.7302   -2.7518   11.2099 H   0  0  0  0  0  0  0  0  0  0  0  0
   17.3172   -2.2022   13.0535 H   0  0  0  0  0  0  0  0  0  0  0  0
   17.4153   -0.5267   12.4776 H   0  0  0  0  0  0  0  0  0  0  0  0
   14.9777   -1.9172   13.3292 H   0  0  0  0  0  0  0  0  0  0  0  0
   16.4712   -1.5928   15.1224 H   0  0  0  0  0  0  0  0  0  0  0  0
   16.5079    0.1289   14.7512 H   0  0  0  0  0  0  0  0  0  0  0  0
   14.1917    0.4169   15.2486 H   0  0  0  0  0  0  0  0  0  0  0  0
   14.2826    0.2074   17.5939 H   0  0  0  0  0  0  0  0  0  0  0  0
   15.9982    0.0958   17.1817 H   0  0  0  0  0  0  0  0  0  0  0  0
   13.3788   -3.5091   16.7691 H   0  0  0  0  0  0  0  0  0  0  0  0
   14.8681   -3.4121   15.8115 H   0  0  0  0  0  0  0  0  0  0  0  0
   12.2389   -1.1890   17.1735 H   0  0  0  0  0  0  0  0  0  0  0  0
   11.9958   -0.1514   15.7753 H   0  0  0  0  0  0  0  0  0  0  0  0
   10.2982   -1.6217   15.2373 H   0  0  0  0  0  0  0  0  0  0  0  0
   10.9785   -2.9050   16.2621 H   0  0  0  0  0  0  0  0  0  0  0  0
   12.0888   -3.8332   14.6763 H   0  0  0  0  0  0  0  0  0  0  0  0
   11.3406   -2.8451   13.4638 H   0  0  0  0  0  0  0  0  0  0  0  0
   13.6902   -0.6744   13.0107 H   0  0  0  0  0  0  0  0  0  0  0  0
  1  2  1  0
  2  3  1  0
  3  4  1  0
  4  5  1  0
  5  6  1  0
  6  7  1  0
  7  8  1  0
  8  9  1  0
  9 10  1  0
 10 11  1  0
 11 12  1  0
 12 13  1  0
 13 14  1  0
  9  5  1  0
 13  9  1  0
  1 15  1  0
  1 16  1  0
  1 17  1  0
  2 18  1  0
  2 19  1  0
  3 20  1  0
  4 21  1  0
  4 22  1  0
  5 23  1  0
  6 24  1  0
  6 25  1  0
  8 26  1  0
  8 27  1  0
 10 28  1  0
 10 29  1  0
 11 30  1  0
 11 31  1  0
 12 32  1  0
 12 33  1  0
 14 34  1  0
M  END
>  <Energy>  (420) 
47.529047421541122

>  <compound_id>  (420) 
1738

>  <target_id>  (420) 
1

>  <reference_id>  (420) 
20

>  <inspiration_ids>  (420) 
[20, 29]

>  <energy_score>  (420) 
-48.75291441579063

>  <distance_score>  (420) 
2.383345622230874

>  <path>  (420) 
/opt/xchem-fragalysis-2/maxwin/BulkDock/SCRATCH/505732/C1738-P20/C1738-P20.minimised.mol

>  <scratch_subdir>  (420) 
/opt/xchem-fragalysis-2/maxwin/BulkDock/SCRATCH/505732/C1738-P20

>  <fragmenstein_runtime>  (420) 
1.5237469673156738

>  <fragmenstein_outcome>  (420) 
too moved

>  <fragmenstein_mode>  (420) 
expansion

>  <fragmenstein_error>  (420) 


$$$$
C1738-P29
     RDKit          3D

 34 35  0  0  0  0  0  0  0  0999 V2000
   16.5955   -0.0501   11.2168 C   0  0  0  0  0  0  0  0  0  0  0  0
   15.9885    0.8739   12.2692 C   0  0  0  0  0  0  0  0  0  0  0  0
   16.2070    0.4378   13.6471 N   0  0  0  0  0  0  0  0  0  0  0  0
   15.0084   -0.0393   14.3534 C   0  0  0  0  0  0  0  0  0  0  0  0
   14.3461   -1.1811   13.6088 C   0  0  0  0  0  0  0  0  0  0  0  0
   15.3188   -2.2809   13.2138 C   0  0  0  0  0  0  0  0  0  0  0  0
   14.2551   -3.1612   12.0574 S   0  0  0  0  0  0  0  0  0  0  0  0
   12.7553   -2.8954   13.0510 C   0  0  0  0  0  0  0  0  0  0  0  0
   13.1852   -1.9775   14.2224 C   0  0  0  0  0  0  0  0  0  0  0  0
   11.9831   -1.1921   14.6347 C   0  0  0  0  0  0  0  0  0  0  0  0
   11.1851   -2.2376   15.3902 C   0  0  0  0  0  0  0  0  0  0  0  0
   12.2293   -3.0568   16.1210 C   0  0  0  0  0  0  0  0  0  0  0  0
   13.4989   -2.7468   15.4632 N   0  0  0  0  0  0  0  0  0  0  0  0
   14.2239   -1.9176   16.4028 O   0  0  0  0  0  0  0  0  0  0  0  0
   15.9221   -0.8636   10.9446 H   0  0  0  0  0  0  0  0  0  0  0  0
   17.5606   -0.4563   11.5362 H   0  0  0  0  0  0  0  0  0  0  0  0
   16.7737    0.5182   10.2966 H   0  0  0  0  0  0  0  0  0  0  0  0
   16.5062    1.8371   12.1671 H   0  0  0  0  0  0  0  0  0  0  0  0
   14.9408    1.1020   12.0428 H   0  0  0  0  0  0  0  0  0  0  0  0
   16.5960    1.2148   14.1828 H   0  0  0  0  0  0  0  0  0  0  0  0
   15.3565   -0.3321   15.3430 H   0  0  0  0  0  0  0  0  0  0  0  0
   14.3051    0.7896   14.4945 H   0  0  0  0  0  0  0  0  0  0  0  0
   13.9348   -0.6934   12.7084 H   0  0  0  0  0  0  0  0  0  0  0  0
   15.6294   -2.9081   14.0532 H   0  0  0  0  0  0  0  0  0  0  0  0
   16.2336   -1.9790   12.7153 H   0  0  0  0  0  0  0  0  0  0  0  0
   12.0361   -2.3745   12.4230 H   0  0  0  0  0  0  0  0  0  0  0  0
   12.2802   -3.8323   13.3399 H   0  0  0  0  0  0  0  0  0  0  0  0
   12.3627   -0.4125   15.2769 H   0  0  0  0  0  0  0  0  0  0  0  0
   11.4184   -0.7339   13.8183 H   0  0  0  0  0  0  0  0  0  0  0  0
   10.6338   -2.8763   14.6901 H   0  0  0  0  0  0  0  0  0  0  0  0
   10.4422   -1.7979   16.0396 H   0  0  0  0  0  0  0  0  0  0  0  0
   12.2761   -2.8173   17.1809 H   0  0  0  0  0  0  0  0  0  0  0  0
   11.9924   -4.1189   16.0597 H   0  0  0  0  0  0  0  0  0  0  0  0
   15.0110   -2.4738   16.5731 H   0  0  0  0  0  0  0  0  0  0  0  0
  1  2  1  0
  2  3  1  0
  3  4  1  0
  4  5  1  0
  5  6  1  0
  6  7  1  0
  7  8  1  0
  8  9  1  0
  9 10  1  0
 10 11  1  0
 11 12  1  0
 12 13  1  0
 13 14  1  0
  9  5  1  0
 13  9  1  0
  1 15  1  0
  1 16  1  0
  1 17  1  0
  2 18  1  0
  2 19  1  0
  3 20  1  0
  4 21  1  0
  4 22  1  0
  5 23  1  0
  6 24  1  0
  6 25  1  0
  8 26  1  0
  8 27  1  0
 10 28  1  0
 10 29  1  0
 11 30  1  0
 11 31  1  0
 12 32  1  0
 12 33  1  0
 14 34  1  0
M  END
>  <Energy>  (421) 
73.409995928248605

>  <compound_id>  (421) 
1738

>  <target_id>  (421) 
1

>  <reference_id>  (421) 
29

>  <inspiration_ids>  (421) 
[20, 29]

>  <energy_score>  (421) 
-22.871965909084167

>  <distance_score>  (421) 
2.046633366607468

>  <path>  (421) 
/opt/xchem-fragalysis-2/maxwin/BulkDock/SCRATCH/505732/C1738-P29/C1738-P29.minimised.mol

>  <scratch_subdir>  (421) 
/opt/xchem-fragalysis-2/maxwin/BulkDock/SCRATCH/505732/C1738-P29

>  <fragmenstein_runtime>  (421) 
1.3476784229278564

>  <fragmenstein_outcome>  (421) 
too moved

>  <fragmenstein_mode>  (421) 
expansion

>  <fragmenstein_error>  (421) 


$$$$
C1741-P20
     RDKit          3D

 31 32  0  0  0  0  0  0  0  0999 V2000
   14.5507   -0.3245   18.0856 C   0  0  0  0  0  0  0  0  0  0  0  0
   13.6521   -0.0114   16.9771 N   0  0  0  0  0  0  0  0  0  0  0  0
   13.9227    1.3494   16.5127 C   0  0  0  0  0  0  0  0  0  0  0  0
   13.3812    2.5222   17.3518 C   0  0  0  0  0  0  0  0  0  0  0  0
   13.7749    3.7471   16.7230 O   0  0  0  0  0  0  0  0  0  0  0  0
   13.3049    1.3878   15.1882 N   0  0  0  0  0  0  0  0  0  0  0  0
   13.8238    0.1495   14.6064 C   0  0  0  0  0  0  0  0  0  0  0  0
   13.7104   -0.8892   15.7453 C   0  0  0  0  0  0  0  0  0  0  0  0
   12.3590   -1.6311   15.5562 C   0  0  0  0  0  0  0  0  0  0  0  0
   12.5212   -3.2494   16.3410 S   0  0  0  0  0  0  0  0  0  0  0  0
   14.3225   -3.1931   16.4890 C   0  0  0  0  0  0  0  0  0  0  0  0
   14.8104   -1.9770   15.6974 C   0  0  0  0  0  0  0  0  0  0  0  0
   15.2013   -2.4129   14.3035 C   0  0  0  0  0  0  0  0  0  0  0  0
   14.6315   -2.1540   13.2591 O   0  0  0  0  0  0  0  0  0  0  0  0
   16.2895   -3.2101   14.3228 O   0  0  0  0  0  0  0  0  0  0  0  0
   14.3947    0.3740   18.9151 H   0  0  0  0  0  0  0  0  0  0  0  0
   15.6093   -0.2681   17.8124 H   0  0  0  0  0  0  0  0  0  0  0  0
   14.3432   -1.3079   18.5069 H   0  0  0  0  0  0  0  0  0  0  0  0
   15.0030    1.5147   16.3768 H   0  0  0  0  0  0  0  0  0  0  0  0
   13.7881    2.5214   18.3664 H   0  0  0  0  0  0  0  0  0  0  0  0
   12.2896    2.5110   17.4085 H   0  0  0  0  0  0  0  0  0  0  0  0
   13.6096    3.6047   15.7693 H   0  0  0  0  0  0  0  0  0  0  0  0
   12.3000    1.2848   15.3263 H   0  0  0  0  0  0  0  0  0  0  0  0
   13.2497   -0.0955   13.7072 H   0  0  0  0  0  0  0  0  0  0  0  0
   14.8664    0.3186   14.3080 H   0  0  0  0  0  0  0  0  0  0  0  0
   12.1320   -1.8098   14.4997 H   0  0  0  0  0  0  0  0  0  0  0  0
   11.5124   -1.0833   15.9819 H   0  0  0  0  0  0  0  0  0  0  0  0
   14.7474   -4.1379   16.1407 H   0  0  0  0  0  0  0  0  0  0  0  0
   14.5794   -3.1182   17.5473 H   0  0  0  0  0  0  0  0  0  0  0  0
   15.7452   -1.5921   16.1221 H   0  0  0  0  0  0  0  0  0  0  0  0
   16.2928   -3.6614   13.4421 H   0  0  0  0  0  0  0  0  0  0  0  0
  1  2  1  0
  2  3  1  0
  3  4  1  0
  4  5  1  0
  3  6  1  0
  6  7  1  0
  7  8  1  0
  8  9  1  0
  9 10  1  0
 10 11  1  0
 11 12  1  0
 12 13  1  0
 13 14  2  0
 13 15  1  0
  8  2  1  0
 12  8  1  0
  1 16  1  0
  1 17  1  0
  1 18  1  0
  3 19  1  0
  4 20  1  0
  4 21  1  0
  5 22  1  0
  6 23  1  0
  7 24  1  0
  7 25  1  0
  9 26  1  0
  9 27  1  0
 11 28  1  0
 11 29  1  0
 12 30  1  0
 15 31  1  0
M  END
>  <Energy>  (422) 
22.366733497326862

>  <compound_id>  (422) 
1741

>  <target_id>  (422) 
1

>  <reference_id>  (422) 
20

>  <inspiration_ids>  (422) 
[20, 55]

>  <energy_score>  (422) 
-61.111956330434296

>  <distance_score>  (422) 
2.224810617270569

>  <path>  (422) 
/opt/xchem-fragalysis-2/maxwin/BulkDock/SCRATCH/505732/C1741-P20/C1741-P20.minimised.mol

>  <scratch_subdir>  (422) 
/opt/xchem-fragalysis-2/maxwin/BulkDock/SCRATCH/505732/C1741-P20

>  <fragmenstein_runtime>  (422) 
1.1948471069335938

>  <fragmenstein_outcome>  (422) 
too moved

>  <fragmenstein_mode>  (422) 
expansion

>  <fragmenstein_error>  (422) 


$$$$
C1741-P55
     RDKit          3D

 31 32  0  0  0  0  0  0  0  0999 V2000
   14.6055   -0.2073   18.5922 C   0  0  0  0  0  0  0  0  0  0  0  0
   13.6967   -0.0677   17.4465 N   0  0  0  0  0  0  0  0  0  0  0  0
   14.1964    1.0409   16.6218 C   0  0  0  0  0  0  0  0  0  0  0  0
   13.3610    2.3266   16.8040 C   0  0  0  0  0  0  0  0  0  0  0  0
   13.9171    3.3834   16.0195 O   0  0  0  0  0  0  0  0  0  0  0  0
   14.2167    0.5764   15.2304 N   0  0  0  0  0  0  0  0  0  0  0  0
   14.4509   -0.8778   15.3646 C   0  0  0  0  0  0  0  0  0  0  0  0
   13.5596   -1.2629   16.5500 C   0  0  0  0  0  0  0  0  0  0  0  0
   12.0937   -1.2867   16.0166 C   0  0  0  0  0  0  0  0  0  0  0  0
   11.7553   -2.9519   15.4458 S   0  0  0  0  0  0  0  0  0  0  0  0
   12.9839   -3.7325   16.4978 C   0  0  0  0  0  0  0  0  0  0  0  0
   13.7592   -2.6487   17.2316 C   0  0  0  0  0  0  0  0  0  0  0  0
   15.1804   -3.1371   17.4176 C   0  0  0  0  0  0  0  0  0  0  0  0
   16.2193   -2.5817   17.1141 O   0  0  0  0  0  0  0  0  0  0  0  0
   15.2335   -4.3299   18.0536 O   0  0  0  0  0  0  0  0  0  0  0  0
   14.6101    0.7210   19.1766 H   0  0  0  0  0  0  0  0  0  0  0  0
   15.6378   -0.4146   18.2931 H   0  0  0  0  0  0  0  0  0  0  0  0
   14.2837   -0.9846   19.2891 H   0  0  0  0  0  0  0  0  0  0  0  0
   15.2417    1.2915   16.8534 H   0  0  0  0  0  0  0  0  0  0  0  0
   13.3616    2.6501   17.8496 H   0  0  0  0  0  0  0  0  0  0  0  0
   12.3222    2.1780   16.4896 H   0  0  0  0  0  0  0  0  0  0  0  0
   14.2747    2.9613   15.2140 H   0  0  0  0  0  0  0  0  0  0  0  0
   13.3058    0.7434   14.8100 H   0  0  0  0  0  0  0  0  0  0  0  0
   14.1989   -1.3934   14.4324 H   0  0  0  0  0  0  0  0  0  0  0  0
   15.5176   -1.0253   15.5475 H   0  0  0  0  0  0  0  0  0  0  0  0
   11.8844   -0.5932   15.1985 H   0  0  0  0  0  0  0  0  0  0  0  0
   11.3837   -1.0426   16.7962 H   0  0  0  0  0  0  0  0  0  0  0  0
   13.6420   -4.3760   15.9227 H   0  0  0  0  0  0  0  0  0  0  0  0
   12.4679   -4.3804   17.2123 H   0  0  0  0  0  0  0  0  0  0  0  0
   13.3386   -2.6094   18.2409 H   0  0  0  0  0  0  0  0  0  0  0  0
   16.1968   -4.4985   18.1506 H   0  0  0  0  0  0  0  0  0  0  0  0
  1  2  1  0
  2  3  1  0
  3  4  1  0
  4  5  1  0
  3  6  1  0
  6  7  1  0
  7  8  1  0
  8  9  1  0
  9 10  1  0
 10 11  1  0
 11 12  1  0
 12 13  1  0
 13 14  2  0
 13 15  1  0
  8  2  1  0
 12  8  1  0
  1 16  1  0
  1 17  1  0
  1 18  1  0
  3 19  1  0
  4 20  1  0
  4 21  1  0
  5 22  1  0
  6 23  1  0
  7 24  1  0
  7 25  1  0
  9 26  1  0
  9 27  1  0
 11 28  1  0
 11 29  1  0
 12 30  1  0
 15 31  1  0
M  END
>  <Energy>  (423) 
28.050086150553334

>  <compound_id>  (423) 
1741

>  <target_id>  (423) 
1

>  <reference_id>  (423) 
55

>  <inspiration_ids>  (423) 
[20, 55]

>  <energy_score>  (423) 
-55.42860367720709

>  <distance_score>  (423) 
1.3628497537897284

>  <path>  (423) 
/opt/xchem-fragalysis-2/maxwin/BulkDock/SCRATCH/505732/C1741-P55/C1741-P55.minimised.mol

>  <scratch_subdir>  (423) 
/opt/xchem-fragalysis-2/maxwin/BulkDock/SCRATCH/505732/C1741-P55

>  <fragmenstein_runtime>  (423) 
1.052002191543579

>  <fragmenstein_outcome>  (423) 
too moved

>  <fragmenstein_mode>  (423) 
expansion

>  <fragmenstein_error>  (423) 


$$$$
C1743-P20
     RDKit          3D

 25 25  0  0  0  0  0  0  0  0999 V2000
   16.2365    0.8745   19.1881 C   0  0  0  0  0  0  0  0  0  0  0  0
   16.2267    1.2009   17.4359 S   0  0  0  0  0  0  0  0  0  0  0  0
   17.4076    0.5990   16.8456 O   0  0  0  0  0  0  0  0  0  0  0  0
   15.9822    2.6233   17.2693 O   0  0  0  0  0  0  0  0  0  0  0  0
   14.7955    0.3720   16.7898 C   0  0  0  0  0  0  0  0  0  0  0  0
   14.9248   -1.1381   16.8471 C   0  0  0  0  0  0  0  0  0  0  0  0
   15.0822   -1.4737   18.2251 O   0  0  0  0  0  0  0  0  0  0  0  0
   13.7005   -1.8692   16.3141 C   0  0  0  0  0  0  0  0  0  0  0  0
   12.8638   -1.4274   15.3021 C   0  0  0  0  0  0  0  0  0  0  0  0
   11.5522   -2.4774   15.0171 S   0  0  0  0  0  0  0  0  0  0  0  0
   12.1013   -3.5776   16.1897 C   0  0  0  0  0  0  0  0  0  0  0  0
   13.2501   -3.1582   16.8248 C   0  0  0  0  0  0  0  0  0  0  0  0
   13.9409   -3.9624   17.8255 C   0  0  0  0  0  0  0  0  0  0  0  0
   15.1618   -4.0351   17.8878 O   0  0  0  0  0  0  0  0  0  0  0  0
   13.1558   -4.6411   18.6943 O   0  0  0  0  0  0  0  0  0  0  0  0
   16.8766    1.6257   19.6580 H   0  0  0  0  0  0  0  0  0  0  0  0
   15.2212    0.9706   19.5764 H   0  0  0  0  0  0  0  0  0  0  0  0
   16.6557   -0.1122   19.3832 H   0  0  0  0  0  0  0  0  0  0  0  0
   13.9391    0.7331   17.3706 H   0  0  0  0  0  0  0  0  0  0  0  0
   14.6828    0.7240   15.7588 H   0  0  0  0  0  0  0  0  0  0  0  0
   15.8124   -1.4765   16.2998 H   0  0  0  0  0  0  0  0  0  0  0  0
   15.6057   -2.3077   18.2464 H   0  0  0  0  0  0  0  0  0  0  0  0
   12.9429   -0.5246   14.7105 H   0  0  0  0  0  0  0  0  0  0  0  0
   11.5743   -4.5096   16.3341 H   0  0  0  0  0  0  0  0  0  0  0  0
   12.2169   -4.3456   18.7340 H   0  0  0  0  0  0  0  0  0  0  0  0
  1  2  1  0
  2  3  2  0
  2  4  2  0
  2  5  1  0
  5  6  1  0
  6  7  1  0
  6  8  1  0
  8  9  2  0
  9 10  1  0
 10 11  1  0
 11 12  2  0
 12 13  1  0
 13 14  2  0
 13 15  1  0
 12  8  1  0
  1 16  1  0
  1 17  1  0
  1 18  1  0
  5 19  1  0
  5 20  1  0
  6 21  1  0
  7 22  1  0
  9 23  1  0
 11 24  1  0
 15 25  1  0
M  END
>  <Energy>  (424) 
-20.704438474455738

>  <compound_id>  (424) 
1743

>  <target_id>  (424) 
1

>  <reference_id>  (424) 
20

>  <inspiration_ids>  (424) 
[20, 61]

>  <energy_score>  (424) 
-49.483974983312564

>  <distance_score>  (424) 
1.3323997469902993

>  <path>  (424) 
/opt/xchem-fragalysis-2/maxwin/BulkDock/SCRATCH/505732/C1743-P20/C1743-P20.minimised.mol

>  <scratch_subdir>  (424) 
/opt/xchem-fragalysis-2/maxwin/BulkDock/SCRATCH/505732/C1743-P20

>  <fragmenstein_runtime>  (424) 
0.7446808815002441

>  <fragmenstein_outcome>  (424) 
too moved

>  <fragmenstein_mode>  (424) 
expansion

>  <fragmenstein_error>  (424) 


$$$$
C1743-P61
     RDKit          3D

 25 25  0  0  0  0  0  0  0  0999 V2000
   16.2792    0.7153   19.2458 C   0  0  0  0  0  0  0  0  0  0  0  0
   16.1905    1.1326   17.5161 S   0  0  0  0  0  0  0  0  0  0  0  0
   17.3670    0.6086   16.8483 O   0  0  0  0  0  0  0  0  0  0  0  0
   15.8876    2.5515   17.4378 O   0  0  0  0  0  0  0  0  0  0  0  0
   14.7644    0.2852   16.8885 C   0  0  0  0  0  0  0  0  0  0  0  0
   14.9551   -1.2203   16.8193 C   0  0  0  0  0  0  0  0  0  0  0  0
   15.2334   -1.6565   18.1472 O   0  0  0  0  0  0  0  0  0  0  0  0
   13.7125   -1.9409   16.3144 C   0  0  0  0  0  0  0  0  0  0  0  0
   12.8749   -1.4808   15.3097 C   0  0  0  0  0  0  0  0  0  0  0  0
   11.5319   -2.4934   15.0439 S   0  0  0  0  0  0  0  0  0  0  0  0
   12.0737   -3.6084   16.2064 C   0  0  0  0  0  0  0  0  0  0  0  0
   13.2392   -3.2203   16.8299 C   0  0  0  0  0  0  0  0  0  0  0  0
   13.9165   -4.0587   17.8134 C   0  0  0  0  0  0  0  0  0  0  0  0
   15.1248   -4.2580   17.7889 O   0  0  0  0  0  0  0  0  0  0  0  0
   13.1361   -4.5968   18.7788 O   0  0  0  0  0  0  0  0  0  0  0  0
   16.9135    1.4613   19.7317 H   0  0  0  0  0  0  0  0  0  0  0  0
   15.2773    0.7561   19.6764 H   0  0  0  0  0  0  0  0  0  0  0  0
   16.7350   -0.2663   19.3719 H   0  0  0  0  0  0  0  0  0  0  0  0
   13.9269    0.5614   17.5401 H   0  0  0  0  0  0  0  0  0  0  0  0
   14.5760    0.7085   15.8960 H   0  0  0  0  0  0  0  0  0  0  0  0
   15.8080   -1.4785   16.1809 H   0  0  0  0  0  0  0  0  0  0  0  0
   15.7240   -2.5058   18.0658 H   0  0  0  0  0  0  0  0  0  0  0  0
   12.9706   -0.5812   14.7156 H   0  0  0  0  0  0  0  0  0  0  0  0
   11.5305   -4.5296   16.3522 H   0  0  0  0  0  0  0  0  0  0  0  0
   12.2104   -4.2612   18.8178 H   0  0  0  0  0  0  0  0  0  0  0  0
  1  2  1  0
  2  3  2  0
  2  4  2  0
  2  5  1  0
  5  6  1  0
  6  7  1  0
  6  8  1  0
  8  9  2  0
  9 10  1  0
 10 11  1  0
 11 12  2  0
 12 13  1  0
 13 14  2  0
 13 15  1  0
 12  8  1  0
  1 16  1  0
  1 17  1  0
  1 18  1  0
  5 19  1  0
  5 20  1  0
  6 21  1  0
  7 22  1  0
  9 23  1  0
 11 24  1  0
 15 25  1  0
M  END
>  <Energy>  (425) 
-20.401636729951704

>  <compound_id>  (425) 
1743

>  <target_id>  (425) 
1

>  <reference_id>  (425) 
61

>  <inspiration_ids>  (425) 
[20, 61]

>  <energy_score>  (425) 
-49.18117323880901

>  <distance_score>  (425) 
1.3512766314571336

>  <path>  (425) 
/opt/xchem-fragalysis-2/maxwin/BulkDock/SCRATCH/505732/C1743-P61/C1743-P61.minimised.mol

>  <scratch_subdir>  (425) 
/opt/xchem-fragalysis-2/maxwin/BulkDock/SCRATCH/505732/C1743-P61

>  <fragmenstein_runtime>  (425) 
0.8006894588470459

>  <fragmenstein_outcome>  (425) 
too moved

>  <fragmenstein_mode>  (425) 
expansion

>  <fragmenstein_error>  (425) 


$$$$
C1745-P20
     RDKit          3D

 31 31  0  0  0  0  0  0  0  0999 V2000
   14.2239    0.1813   18.4118 C   0  0  0  0  0  0  0  0  0  0  0  0
   15.6391   -0.3721   18.3181 C   0  0  0  0  0  0  0  0  0  0  0  0
   16.5482    0.5317   19.1841 C   0  0  0  0  0  0  0  0  0  0  0  0
   16.0419    0.6709   20.5135 O   0  0  0  0  0  0  0  0  0  0  0  0
   15.6337   -1.8393   18.8285 C   0  0  0  0  0  0  0  0  0  0  0  0
   14.8794   -2.6979   17.9440 O   0  0  0  0  0  0  0  0  0  0  0  0
   16.0180   -0.3981   16.9117 N   0  0  0  0  0  0  0  0  0  0  0  0
   15.8190    0.6345   15.8161 C   0  0  0  0  0  0  0  0  0  0  0  0
   15.3891    1.7094   15.8653 O   0  0  0  0  0  0  0  0  0  0  0  0
   16.1781    0.0428   14.6404 N   0  0  0  0  0  0  0  0  0  0  0  0
   15.2640   -0.6596   14.0636 C   0  0  0  0  0  0  0  0  0  0  0  0
   15.5815   -1.2476   12.8953 O   0  0  0  0  0  0  0  0  0  0  0  0
   13.9164   -0.9445   14.5188 C   0  0  0  0  0  0  0  0  0  0  0  0
   12.7731   -0.0954   14.3860 C   0  0  0  0  0  0  0  0  0  0  0  0
   11.6096   -0.6997   14.8107 C   0  0  0  0  0  0  0  0  0  0  0  0
   11.8884   -2.2686   15.4250 S   0  0  0  0  0  0  0  0  0  0  0  0
   13.5671   -2.1298   15.1406 C   0  0  0  0  0  0  0  0  0  0  0  0
   13.8644    0.0551   19.4339 H   0  0  0  0  0  0  0  0  0  0  0  0
   13.5462   -0.3322   17.7251 H   0  0  0  0  0  0  0  0  0  0  0  0
   14.1792    1.2494   18.1718 H   0  0  0  0  0  0  0  0  0  0  0  0
   16.6200    1.5333   18.7440 H   0  0  0  0  0  0  0  0  0  0  0  0
   17.5619    0.1199   19.2394 H   0  0  0  0  0  0  0  0  0  0  0  0
   16.5757    1.3577   20.9506 H   0  0  0  0  0  0  0  0  0  0  0  0
   15.2175   -1.9291   19.8377 H   0  0  0  0  0  0  0  0  0  0  0  0
   16.6548   -2.2356   18.8479 H   0  0  0  0  0  0  0  0  0  0  0  0
   13.9373   -2.5216   18.1112 H   0  0  0  0  0  0  0  0  0  0  0  0
   16.4963   -1.2057   16.5310 H   0  0  0  0  0  0  0  0  0  0  0  0
   16.4952   -0.9999   12.6831 H   0  0  0  0  0  0  0  0  0  0  0  0
   12.7981    0.8942   13.9450 H   0  0  0  0  0  0  0  0  0  0  0  0
   10.6029   -0.3064   14.7580 H   0  0  0  0  0  0  0  0  0  0  0  0
   14.2292   -2.9378   15.4186 H   0  0  0  0  0  0  0  0  0  0  0  0
  1  2  1  0
  2  3  1  0
  3  4  1  0
  2  5  1  0
  5  6  1  0
  2  7  1  0
  7  8  1  0
  8  9  2  0
  8 10  1  0
 10 11  2  3
 11 12  1  0
 11 13  1  0
 13 14  1  0
 14 15  2  0
 15 16  1  0
 16 17  1  0
 17 13  2  0
  1 18  1  0
  1 19  1  0
  1 20  1  0
  3 21  1  0
  3 22  1  0
  4 23  1  0
  5 24  1  0
  5 25  1  0
  6 26  1  0
  7 27  1  0
 12 28  1  0
 14 29  1  0
 15 30  1  0
 17 31  1  0
M  END
>  <Energy>  (426) 
-32.07269299221074

>  <compound_id>  (426) 
1745

>  <target_id>  (426) 
1

>  <reference_id>  (426) 
20

>  <inspiration_ids>  (426) 
[20, 71]

>  <energy_score>  (426) 
-31.538219672982024

>  <distance_score>  (426) 
2.4065408993073722

>  <path>  (426) 
/opt/xchem-fragalysis-2/maxwin/BulkDock/SCRATCH/505732/C1745-P20/C1745-P20.minimised.mol

>  <scratch_subdir>  (426) 
/opt/xchem-fragalysis-2/maxwin/BulkDock/SCRATCH/505732/C1745-P20

>  <fragmenstein_runtime>  (426) 
2.6508264541625977

>  <fragmenstein_outcome>  (426) 
too moved

>  <fragmenstein_mode>  (426) 
expansion

>  <fragmenstein_error>  (426) 


$$$$
C1745-P71
     RDKit          3D

 31 31  0  0  0  0  0  0  0  0999 V2000
   16.2513    2.2653   17.4233 C   0  0  0  0  0  0  0  0  0  0  0  0
   15.5036    1.0261   17.9480 C   0  0  0  0  0  0  0  0  0  0  0  0
   15.6058    1.0418   19.5010 C   0  0  0  0  0  0  0  0  0  0  0  0
   14.6457    0.2413   20.1682 O   0  0  0  0  0  0  0  0  0  0  0  0
   14.0340    1.0665   17.4381 C   0  0  0  0  0  0  0  0  0  0  0  0
   13.4260   -0.2320   17.4413 O   0  0  0  0  0  0  0  0  0  0  0  0
   16.1341   -0.1635   17.3757 N   0  0  0  0  0  0  0  0  0  0  0  0
   15.9653   -1.6345   17.7208 C   0  0  0  0  0  0  0  0  0  0  0  0
   15.3569   -2.1438   18.5665 O   0  0  0  0  0  0  0  0  0  0  0  0
   16.6201   -2.3280   16.7491 N   0  0  0  0  0  0  0  0  0  0  0  0
   15.9269   -2.7117   15.7315 C   0  0  0  0  0  0  0  0  0  0  0  0
   16.5890   -3.3368   14.7291 O   0  0  0  0  0  0  0  0  0  0  0  0
   14.5037   -2.4945   15.4863 C   0  0  0  0  0  0  0  0  0  0  0  0
   13.9469   -1.6237   14.4822 C   0  0  0  0  0  0  0  0  0  0  0  0
   12.5694   -1.6631   14.4353 C   0  0  0  0  0  0  0  0  0  0  0  0
   11.9288   -2.7455   15.5870 S   0  0  0  0  0  0  0  0  0  0  0  0
   13.4895   -3.1320   16.1817 C   0  0  0  0  0  0  0  0  0  0  0  0
   15.7864    3.1915   17.7791 H   0  0  0  0  0  0  0  0  0  0  0  0
   16.2568    2.2936   16.3273 H   0  0  0  0  0  0  0  0  0  0  0  0
   17.2976    2.2612   17.7507 H   0  0  0  0  0  0  0  0  0  0  0  0
   15.4557    2.0612   19.8737 H   0  0  0  0  0  0  0  0  0  0  0  0
   16.6024    0.7218   19.8263 H   0  0  0  0  0  0  0  0  0  0  0  0
   14.6559   -0.6440   19.7423 H   0  0  0  0  0  0  0  0  0  0  0  0
   14.0130    1.4125   16.3977 H   0  0  0  0  0  0  0  0  0  0  0  0
   13.4226    1.7524   18.0328 H   0  0  0  0  0  0  0  0  0  0  0  0
   12.6781   -0.2096   16.8216 H   0  0  0  0  0  0  0  0  0  0  0  0
   16.6693   -0.0773   16.5235 H   0  0  0  0  0  0  0  0  0  0  0  0
   16.0066   -3.6554   14.0195 H   0  0  0  0  0  0  0  0  0  0  0  0
   14.5399   -1.0110   13.8135 H   0  0  0  0  0  0  0  0  0  0  0  0
   11.9049   -1.1284   13.7678 H   0  0  0  0  0  0  0  0  0  0  0  0
   13.5882   -3.8221   17.0104 H   0  0  0  0  0  0  0  0  0  0  0  0
  1  2  1  0
  2  3  1  0
  3  4  1  0
  2  5  1  0
  5  6  1  0
  2  7  1  0
  7  8  1  0
  8  9  2  0
  8 10  1  0
 10 11  2  3
 11 12  1  0
 11 13  1  0
 13 14  1  0
 14 15  2  0
 15 16  1  0
 16 17  1  0
 17 13  2  0
  1 18  1  0
  1 19  1  0
  1 20  1  0
  3 21  1  0
  3 22  1  0
  4 23  1  0
  5 24  1  0
  5 25  1  0
  6 26  1  0
  7 27  1  0
 12 28  1  0
 14 29  1  0
 15 30  1  0
 17 31  1  0
M  END
>  <Energy>  (427) 
-25.27474490290961

>  <compound_id>  (427) 
1745

>  <target_id>  (427) 
1

>  <reference_id>  (427) 
71

>  <inspiration_ids>  (427) 
[20, 71]

>  <energy_score>  (427) 
-24.74027158368101

>  <distance_score>  (427) 
1.7553339507486079

>  <path>  (427) 
/opt/xchem-fragalysis-2/maxwin/BulkDock/SCRATCH/505732/C1745-P71/C1745-P71.minimised.mol

>  <scratch_subdir>  (427) 
/opt/xchem-fragalysis-2/maxwin/BulkDock/SCRATCH/505732/C1745-P71

>  <fragmenstein_runtime>  (427) 
2.363816022872925

>  <fragmenstein_outcome>  (427) 
too moved

>  <fragmenstein_mode>  (427) 
expansion

>  <fragmenstein_error>  (427) 


$$$$
C1746-P20
     RDKit          3D

 19 19  0  0  0  0  0  0  0  0999 V2000
   15.2458    3.1276   15.8091 O   0  0  0  0  0  0  0  0  0  0  0  0
   14.4958    2.4779   15.0964 C   0  0  0  0  0  0  0  0  0  0  0  0
   13.1475    2.6260   15.1279 O   0  0  0  0  0  0  0  0  0  0  0  0
   14.9637    1.4601   14.0669 C   0  0  0  0  0  0  0  0  0  0  0  0
   13.9323    0.5346   13.7361 O   0  0  0  0  0  0  0  0  0  0  0  0
   13.7223   -0.4938   14.5879 C   0  0  0  0  0  0  0  0  0  0  0  0
   14.4266   -0.9378   15.6943 C   0  0  0  0  0  0  0  0  0  0  0  0
   13.8469   -2.0844   16.3529 C   0  0  0  0  0  0  0  0  0  0  0  0
   14.4040   -2.7118   17.5348 C   0  0  0  0  0  0  0  0  0  0  0  0
   15.3910   -2.3034   18.1287 O   0  0  0  0  0  0  0  0  0  0  0  0
   13.7481   -3.7966   17.9942 O   0  0  0  0  0  0  0  0  0  0  0  0
   12.6971   -2.4587   15.7041 C   0  0  0  0  0  0  0  0  0  0  0  0
   11.9116   -3.4783   16.0884 F   0  0  0  0  0  0  0  0  0  0  0  0
   12.3338   -1.4919   14.3625 S   0  0  0  0  0  0  0  0  0  0  0  0
   12.7143    2.0198   14.4886 H   0  0  0  0  0  0  0  0  0  0  0  0
   15.2080    2.0142   13.1547 H   0  0  0  0  0  0  0  0  0  0  0  0
   15.8738    0.9561   14.4072 H   0  0  0  0  0  0  0  0  0  0  0  0
   15.3405   -0.4768   16.0535 H   0  0  0  0  0  0  0  0  0  0  0  0
   14.2136   -4.0054   18.8310 H   0  0  0  0  0  0  0  0  0  0  0  0
  1  2  2  0
  2  3  1  0
  2  4  1  0
  4  5  1  0
  5  6  1  0
  6  7  2  0
  7  8  1  0
  8  9  1  0
  9 10  2  0
  9 11  1  0
  8 12  2  0
 12 13  1  0
 12 14  1  0
 14  6  1  0
  3 15  1  0
  4 16  1  0
  4 17  1  0
  7 18  1  0
 11 19  1  0
M  END
>  <Energy>  (428) 
-20.624084610592938

>  <compound_id>  (428) 
1746

>  <target_id>  (428) 
1

>  <reference_id>  (428) 
20

>  <inspiration_ids>  (428) 
[20, 76]

>  <energy_score>  (428) 
-47.132487910128276

>  <distance_score>  (428) 
1.7156471195328309

>  <path>  (428) 
/opt/xchem-fragalysis-2/maxwin/BulkDock/SCRATCH/505732/C1746-P20/C1746-P20.minimised.mol

>  <scratch_subdir>  (428) 
/opt/xchem-fragalysis-2/maxwin/BulkDock/SCRATCH/505732/C1746-P20

>  <fragmenstein_runtime>  (428) 
1.1258485317230225

>  <fragmenstein_outcome>  (428) 
too moved

>  <fragmenstein_mode>  (428) 
expansion

>  <fragmenstein_error>  (428) 


$$$$
C1746-P76
     RDKit          3D

 19 19  0  0  0  0  0  0  0  0999 V2000
   14.7556    1.8728   15.9918 O   0  0  0  0  0  0  0  0  0  0  0  0
   15.4288    1.9527   14.9757 C   0  0  0  0  0  0  0  0  0  0  0  0
   16.4800    2.8094   14.8885 O   0  0  0  0  0  0  0  0  0  0  0  0
   15.2489    1.1117   13.7067 C   0  0  0  0  0  0  0  0  0  0  0  0
   14.0671    0.3466   13.5799 O   0  0  0  0  0  0  0  0  0  0  0  0
   13.9204   -0.7281   14.3814 C   0  0  0  0  0  0  0  0  0  0  0  0
   14.7445   -1.2748   15.3503 C   0  0  0  0  0  0  0  0  0  0  0  0
   14.1661   -2.3781   16.0758 C   0  0  0  0  0  0  0  0  0  0  0  0
   14.8193   -3.0517   17.1786 C   0  0  0  0  0  0  0  0  0  0  0  0
   15.9616   -2.8227   17.5502 O   0  0  0  0  0  0  0  0  0  0  0  0
   14.0774   -3.9624   17.8414 O   0  0  0  0  0  0  0  0  0  0  0  0
   12.9129   -2.6485   15.5832 C   0  0  0  0  0  0  0  0  0  0  0  0
   12.0988   -3.5975   16.0744 F   0  0  0  0  0  0  0  0  0  0  0  0
   12.4802   -1.6758   14.2646 S   0  0  0  0  0  0  0  0  0  0  0  0
   16.9466    2.7988   14.0312 H   0  0  0  0  0  0  0  0  0  0  0  0
   15.2369    1.8161   12.8668 H   0  0  0  0  0  0  0  0  0  0  0  0
   16.1303    0.4711   13.5800 H   0  0  0  0  0  0  0  0  0  0  0  0
   15.7223   -0.8789   15.5977 H   0  0  0  0  0  0  0  0  0  0  0  0
   14.6725   -4.2391   18.5683 H   0  0  0  0  0  0  0  0  0  0  0  0
  1  2  2  0
  2  3  1  0
  2  4  1  0
  4  5  1  0
  5  6  1  0
  6  7  2  0
  7  8  1  0
  8  9  1  0
  9 10  2  0
  9 11  1  0
  8 12  2  0
 12 13  1  0
 12 14  1  0
 14  6  1  0
  3 15  1  0
  4 16  1  0
  4 17  1  0
  7 18  1  0
 11 19  1  0
M  END
>  <Energy>  (429) 
-14.712561340686015

>  <compound_id>  (429) 
1746

>  <target_id>  (429) 
1

>  <reference_id>  (429) 
76

>  <inspiration_ids>  (429) 
[20, 76]

>  <energy_score>  (429) 
-41.220964640221425

>  <distance_score>  (429) 
1.4046314740486026

>  <path>  (429) 
/opt/xchem-fragalysis-2/maxwin/BulkDock/SCRATCH/505732/C1746-P76/C1746-P76.minimised.mol

>  <scratch_subdir>  (429) 
/opt/xchem-fragalysis-2/maxwin/BulkDock/SCRATCH/505732/C1746-P76

>  <fragmenstein_runtime>  (429) 
0.7087709903717041

>  <fragmenstein_outcome>  (429) 
too moved

>  <fragmenstein_mode>  (429) 
expansion

>  <fragmenstein_error>  (429) 


$$$$
C1747-P20
     RDKit          3D

 31 32  0  0  0  0  0  0  0  0999 V2000
   14.9967   -1.0827   17.8468 O   0  0  0  0  0  0  0  0  0  0  0  0
   14.4759   -2.1035   17.4214 C   0  0  0  0  0  0  0  0  0  0  0  0
   14.8919   -3.3055   17.8873 O   0  0  0  0  0  0  0  0  0  0  0  0
   13.3720   -2.1727   16.4734 C   0  0  0  0  0  0  0  0  0  0  0  0
   12.6159   -3.3156   16.2799 C   0  0  0  0  0  0  0  0  0  0  0  0
   11.3747   -3.1026   15.1366 S   0  0  0  0  0  0  0  0  0  0  0  0
   11.8062   -1.4900   14.8694 C   0  0  0  0  0  0  0  0  0  0  0  0
   12.8929   -1.0976   15.6259 C   0  0  0  0  0  0  0  0  0  0  0  0
   13.4694    0.2804   15.5410 C   0  0  0  0  0  0  0  0  0  0  0  0
   14.7708    0.2382   14.8569 N   0  0  0  0  0  0  0  0  0  0  0  0
   15.5285    1.4807   15.0683 C   0  0  0  0  0  0  0  0  0  0  0  0
   14.9822    2.6703   14.2796 C   0  0  0  0  0  0  0  0  0  0  0  0
   14.8859    2.3381   12.7939 C   0  0  0  0  0  0  0  0  0  0  0  0
   14.2465    3.4048   12.0979 O   0  0  0  0  0  0  0  0  0  0  0  0
   14.1232    1.0378   12.5638 C   0  0  0  0  0  0  0  0  0  0  0  0
   14.6964   -0.0867   13.4236 C   0  0  0  0  0  0  0  0  0  0  0  0
   15.6146   -3.0541   18.4987 H   0  0  0  0  0  0  0  0  0  0  0  0
   12.7322   -4.2756   16.7654 H   0  0  0  0  0  0  0  0  0  0  0  0
   11.2519   -0.8987   14.1514 H   0  0  0  0  0  0  0  0  0  0  0  0
   12.7681    0.9641   15.0478 H   0  0  0  0  0  0  0  0  0  0  0  0
   13.5858    0.6585   16.5645 H   0  0  0  0  0  0  0  0  0  0  0  0
   15.5683    1.7284   16.1362 H   0  0  0  0  0  0  0  0  0  0  0  0
   16.5714    1.3049   14.7737 H   0  0  0  0  0  0  0  0  0  0  0  0
   15.6320    3.5429   14.4190 H   0  0  0  0  0  0  0  0  0  0  0  0
   14.0003    2.9725   14.6649 H   0  0  0  0  0  0  0  0  0  0  0  0
   15.8962    2.2435   12.3785 H   0  0  0  0  0  0  0  0  0  0  0  0
   13.3449    3.4947   12.4517 H   0  0  0  0  0  0  0  0  0  0  0  0
   13.0550    1.1798   12.7690 H   0  0  0  0  0  0  0  0  0  0  0  0
   14.1829    0.7636   11.5038 H   0  0  0  0  0  0  0  0  0  0  0  0
   14.1332   -1.0098   13.2490 H   0  0  0  0  0  0  0  0  0  0  0  0
   15.7132   -0.3122   13.0747 H   0  0  0  0  0  0  0  0  0  0  0  0
  1  2  2  0
  2  3  1  0
  2  4  1  0
  4  5  2  0
  5  6  1  0
  6  7  1  0
  7  8  2  0
  8  9  1  0
  9 10  1  0
 10 11  1  0
 11 12  1  0
 12 13  1  0
 13 14  1  0
 13 15  1  0
 15 16  1  0
  8  4  1  0
 16 10  1  0
  3 17  1  0
  5 18  1  0
  7 19  1  0
  9 20  1  0
  9 21  1  0
 11 22  1  0
 11 23  1  0
 12 24  1  0
 12 25  1  0
 13 26  1  0
 14 27  1  0
 15 28  1  0
 15 29  1  0
 16 30  1  0
 16 31  1  0
M  END
>  <Energy>  (430) 
-13.343000458873624

>  <compound_id>  (430) 
1747

>  <target_id>  (430) 
1

>  <reference_id>  (430) 
20

>  <inspiration_ids>  (430) 
[20, 80]

>  <energy_score>  (430) 
-57.60546758787632

>  <distance_score>  (430) 
1.2850262288453278

>  <path>  (430) 
/opt/xchem-fragalysis-2/maxwin/BulkDock/SCRATCH/505732/C1747-P20/C1747-P20.minimised.mol

>  <scratch_subdir>  (430) 
/opt/xchem-fragalysis-2/maxwin/BulkDock/SCRATCH/505732/C1747-P20

>  <fragmenstein_runtime>  (430) 
1.1299834251403809

>  <fragmenstein_outcome>  (430) 
too moved

>  <fragmenstein_mode>  (430) 
expansion

>  <fragmenstein_error>  (430) 


$$$$
C1747-P80
     RDKit          3D

 31 32  0  0  0  0  0  0  0  0999 V2000
   14.8646   -1.0018   17.9976 O   0  0  0  0  0  0  0  0  0  0  0  0
   14.3669   -2.0323   17.5675 C   0  0  0  0  0  0  0  0  0  0  0  0
   14.7757   -3.2242   18.0631 O   0  0  0  0  0  0  0  0  0  0  0  0
   13.3027   -2.1210   16.5762 C   0  0  0  0  0  0  0  0  0  0  0  0
   12.5776   -3.2779   16.3488 C   0  0  0  0  0  0  0  0  0  0  0  0
   11.3746   -3.0825   15.1611 S   0  0  0  0  0  0  0  0  0  0  0  0
   11.7906   -1.4632   14.9119 C   0  0  0  0  0  0  0  0  0  0  0  0
   12.8398   -1.0531   15.7105 C   0  0  0  0  0  0  0  0  0  0  0  0
   13.3971    0.3341   15.6501 C   0  0  0  0  0  0  0  0  0  0  0  0
   14.6935    0.3211   14.9560 N   0  0  0  0  0  0  0  0  0  0  0  0
   15.4529    1.5550   15.2075 C   0  0  0  0  0  0  0  0  0  0  0  0
   14.8981    2.7722   14.4688 C   0  0  0  0  0  0  0  0  0  0  0  0
   14.7835    2.4957   12.9721 C   0  0  0  0  0  0  0  0  0  0  0  0
   14.1282    3.5814   12.3210 O   0  0  0  0  0  0  0  0  0  0  0  0
   14.0218    1.2025   12.7017 C   0  0  0  0  0  0  0  0  0  0  0  0
   14.6101    0.0492   13.5123 C   0  0  0  0  0  0  0  0  0  0  0  0
   15.4657   -2.9584   18.7051 H   0  0  0  0  0  0  0  0  0  0  0  0
   12.6950   -4.2371   16.8366 H   0  0  0  0  0  0  0  0  0  0  0  0
   11.2577   -0.8811   14.1718 H   0  0  0  0  0  0  0  0  0  0  0  0
   12.6831    1.0174   15.1750 H   0  0  0  0  0  0  0  0  0  0  0  0
   13.5126    0.6967   16.6792 H   0  0  0  0  0  0  0  0  0  0  0  0
   15.5022    1.7623   16.2835 H   0  0  0  0  0  0  0  0  0  0  0  0
   16.4932    1.3914   14.8969 H   0  0  0  0  0  0  0  0  0  0  0  0
   15.5489    3.6397   14.6325 H   0  0  0  0  0  0  0  0  0  0  0  0
   13.9208    3.0583   14.8777 H   0  0  0  0  0  0  0  0  0  0  0  0
   15.7881    2.4203   12.5395 H   0  0  0  0  0  0  0  0  0  0  0  0
   13.2881    3.7450   12.7815 H   0  0  0  0  0  0  0  0  0  0  0  0
   12.9559    1.3342   12.9248 H   0  0  0  0  0  0  0  0  0  0  0  0
   14.0674    0.9683   11.6311 H   0  0  0  0  0  0  0  0  0  0  0  0
   14.0514   -0.8702   13.3077 H   0  0  0  0  0  0  0  0  0  0  0  0
   15.6252   -0.1563   13.1465 H   0  0  0  0  0  0  0  0  0  0  0  0
  1  2  2  0
  2  3  1  0
  2  4  1  0
  4  5  2  0
  5  6  1  0
  6  7  1  0
  7  8  2  0
  8  9  1  0
  9 10  1  0
 10 11  1  0
 11 12  1  0
 12 13  1  0
 13 14  1  0
 13 15  1  0
 15 16  1  0
  8  4  1  0
 16 10  1  0
  3 17  1  0
  5 18  1  0
  7 19  1  0
  9 20  1  0
  9 21  1  0
 11 22  1  0
 11 23  1  0
 12 24  1  0
 12 25  1  0
 13 26  1  0
 14 27  1  0
 15 28  1  0
 15 29  1  0
 16 30  1  0
 16 31  1  0
M  END
>  <Energy>  (431) 
-13.320757178917553

>  <compound_id>  (431) 
1747

>  <target_id>  (431) 
1

>  <reference_id>  (431) 
80

>  <inspiration_ids>  (431) 
[20, 80]

>  <energy_score>  (431) 
-57.58322430792089

>  <distance_score>  (431) 
1.3380932603307647

>  <path>  (431) 
/opt/xchem-fragalysis-2/maxwin/BulkDock/SCRATCH/505732/C1747-P80/C1747-P80.minimised.mol

>  <scratch_subdir>  (431) 
/opt/xchem-fragalysis-2/maxwin/BulkDock/SCRATCH/505732/C1747-P80

>  <fragmenstein_runtime>  (431) 
1.2097654342651367

>  <fragmenstein_outcome>  (431) 
too moved

>  <fragmenstein_mode>  (431) 
expansion

>  <fragmenstein_error>  (431) 


$$$$
C1531-P20
     RDKit          3D

 49 50  0  0  0  0  0  0  0  0999 V2000
   18.4150   -4.7984   17.6593 C   0  0  0  0  0  0  0  0  0  0  0  0
   16.9617   -4.3681   17.7023 C   0  0  0  0  0  0  0  0  0  0  0  0
   16.6771   -2.9307   16.6837 S   0  0  0  0  0  0  0  0  0  0  0  0
   16.7864   -3.3246   15.2966 O   0  0  0  0  0  0  0  0  0  0  0  0
   17.4645   -1.8351   17.2088 O   0  0  0  0  0  0  0  0  0  0  0  0
   15.0313   -2.5538   16.9762 N   0  0  0  0  0  0  0  0  0  0  0  0
   14.0525   -3.6496   16.7511 C   0  0  0  0  0  0  0  0  0  0  0  0
   12.6694   -3.1401   16.3576 C   0  0  0  0  0  0  0  0  0  0  0  0
   12.6545   -2.2003   15.1352 C   0  0  0  0  0  0  0  0  0  0  0  0
   11.4748   -1.2260   15.2089 C   0  0  0  0  0  0  0  0  0  0  0  0
   10.5438   -1.3136   16.0012 O   0  0  0  0  0  0  0  0  0  0  0  0
   11.5953   -0.2393   14.2781 O   0  0  0  0  0  0  0  0  0  0  0  0
   10.6247    0.8204   14.3568 C   0  0  0  0  0  0  0  0  0  0  0  0
   11.1945    1.9201   15.2443 C   0  0  0  0  0  0  0  0  0  0  0  0
   10.2845    3.1310   15.4065 C   0  0  0  0  0  0  0  0  0  0  0  0
    9.0853    2.7633   16.1616 N   0  0  0  0  0  0  0  0  0  0  0  0
    8.3521    3.6989   16.6463 C   0  0  0  0  0  0  0  0  0  0  0  0
    7.2071    3.3628   17.2647 O   0  0  0  0  0  0  0  0  0  0  0  0
    8.5782    5.1291   16.6116 C   0  0  0  0  0  0  0  0  0  0  0  0
    9.6927    5.8397   17.1713 C   0  0  0  0  0  0  0  0  0  0  0  0
    9.6025    7.2018   16.9877 C   0  0  0  0  0  0  0  0  0  0  0  0
    8.1692    7.6423   16.1692 S   0  0  0  0  0  0  0  0  0  0  0  0
    7.6621    6.0124   16.0682 C   0  0  0  0  0  0  0  0  0  0  0  0
   13.9968   -1.4646   15.0148 C   0  0  0  0  0  0  0  0  0  0  0  0
   14.6271   -1.2471   16.3828 C   0  0  0  0  0  0  0  0  0  0  0  0
   18.5678   -5.6845   18.2829 H   0  0  0  0  0  0  0  0  0  0  0  0
   19.0732   -4.0047   18.0270 H   0  0  0  0  0  0  0  0  0  0  0  0
   18.7233   -5.0416   16.6374 H   0  0  0  0  0  0  0  0  0  0  0  0
   16.3292   -5.1747   17.3348 H   0  0  0  0  0  0  0  0  0  0  0  0
   16.6730   -4.1100   18.7253 H   0  0  0  0  0  0  0  0  0  0  0  0
   13.9614   -4.2017   17.6927 H   0  0  0  0  0  0  0  0  0  0  0  0
   14.4280   -4.3412   16.0001 H   0  0  0  0  0  0  0  0  0  0  0  0
   12.2775   -2.6088   17.2237 H   0  0  0  0  0  0  0  0  0  0  0  0
   11.9912   -3.9838   16.1853 H   0  0  0  0  0  0  0  0  0  0  0  0
   12.4872   -2.7893   14.2255 H   0  0  0  0  0  0  0  0  0  0  0  0
    9.6563    0.4551   14.7149 H   0  0  0  0  0  0  0  0  0  0  0  0
   10.4760    1.1942   13.3383 H   0  0  0  0  0  0  0  0  0  0  0  0
   12.1510    2.2480   14.8167 H   0  0  0  0  0  0  0  0  0  0  0  0
   11.4432    1.5098   16.2269 H   0  0  0  0  0  0  0  0  0  0  0  0
   10.8753    3.8908   15.9235 H   0  0  0  0  0  0  0  0  0  0  0  0
   10.0042    3.5221   14.4216 H   0  0  0  0  0  0  0  0  0  0  0  0
    7.1002    2.3893   17.2576 H   0  0  0  0  0  0  0  0  0  0  0  0
   10.5196    5.3688   17.6928 H   0  0  0  0  0  0  0  0  0  0  0  0
   10.3055    7.9608   17.3040 H   0  0  0  0  0  0  0  0  0  0  0  0
    6.7132    5.7738   15.6062 H   0  0  0  0  0  0  0  0  0  0  0  0
   13.8996   -0.4967   14.5132 H   0  0  0  0  0  0  0  0  0  0  0  0
   14.6689   -2.0584   14.3842 H   0  0  0  0  0  0  0  0  0  0  0  0
   13.9309   -0.7495   17.0687 H   0  0  0  0  0  0  0  0  0  0  0  0
   15.4850   -0.5729   16.2907 H   0  0  0  0  0  0  0  0  0  0  0  0
  1  2  1  0
  2  3  1  0
  3  4  2  0
  3  5  2  0
  3  6  1  0
  6  7  1  0
  7  8  1  0
  8  9  1  0
  9 10  1  0
 10 11  2  0
 10 12  1  0
 12 13  1  0
 13 14  1  0
 14 15  1  0
 15 16  1  0
 16 17  2  3
 17 18  1  0
 17 19  1  0
 19 20  1  0
 20 21  2  0
 21 22  1  0
 22 23  1  0
  9 24  1  0
 24 25  1  0
 25  6  1  0
 23 19  2  0
  1 26  1  0
  1 27  1  0
  1 28  1  0
  2 29  1  0
  2 30  1  0
  7 31  1  0
  7 32  1  0
  8 33  1  0
  8 34  1  0
  9 35  1  0
 13 36  1  0
 13 37  1  0
 14 38  1  0
 14 39  1  0
 15 40  1  0
 15 41  1  0
 18 42  1  0
 20 43  1  0
 21 44  1  0
 23 45  1  0
 24 46  1  0
 24 47  1  0
 25 48  1  0
 25 49  1  0
M  END
>  <Energy>  (432) 
-74.700686123621296

>  <compound_id>  (432) 
1531

>  <target_id>  (432) 
1

>  <reference_id>  (432) 
20

>  <inspiration_ids>  (432) 
[20, 98]

>  <energy_score>  (432) 
-82.22426959843831

>  <distance_score>  (432) 
2.706379704263039

>  <path>  (432) 
/opt/xchem-fragalysis-2/maxwin/BulkDock/SCRATCH/505732/C1531-P20/C1531-P20.minimised.mol

>  <scratch_subdir>  (432) 
/opt/xchem-fragalysis-2/maxwin/BulkDock/SCRATCH/505732/C1531-P20

>  <fragmenstein_runtime>  (432) 
11.764639854431152

>  <fragmenstein_outcome>  (432) 
too moved

>  <fragmenstein_mode>  (432) 
expansion

>  <fragmenstein_error>  (432) 


$$$$
C1531-P98
     RDKit          3D

 49 50  0  0  0  0  0  0  0  0999 V2000
   18.1492   -4.2023   15.4358 C   0  0  0  0  0  0  0  0  0  0  0  0
   17.1574   -4.8779   16.3595 C   0  0  0  0  0  0  0  0  0  0  0  0
   16.4882   -3.8057   17.6319 S   0  0  0  0  0  0  0  0  0  0  0  0
   17.4306   -2.7376   17.8872 O   0  0  0  0  0  0  0  0  0  0  0  0
   16.0286   -4.6596   18.7083 O   0  0  0  0  0  0  0  0  0  0  0  0
   15.1130   -3.1288   16.9141 N   0  0  0  0  0  0  0  0  0  0  0  0
   13.9267   -3.9993   16.7742 C   0  0  0  0  0  0  0  0  0  0  0  0
   12.6813   -3.1757   16.4636 C   0  0  0  0  0  0  0  0  0  0  0  0
   12.8572   -2.1123   15.3725 C   0  0  0  0  0  0  0  0  0  0  0  0
   11.6587   -1.1663   15.3106 C   0  0  0  0  0  0  0  0  0  0  0  0
   10.5897   -1.3262   15.8867 O   0  0  0  0  0  0  0  0  0  0  0  0
   11.9550   -0.1042   14.5149 O   0  0  0  0  0  0  0  0  0  0  0  0
   10.9343    0.8862   14.3606 C   0  0  0  0  0  0  0  0  0  0  0  0
   11.5652    2.1698   13.8167 C   0  0  0  0  0  0  0  0  0  0  0  0
   12.0158    2.0760   12.3567 C   0  0  0  0  0  0  0  0  0  0  0  0
   13.0592    1.0838   12.1691 N   0  0  0  0  0  0  0  0  0  0  0  0
   14.2983    1.3143   12.3843 C   0  0  0  0  0  0  0  0  0  0  0  0
   14.8022    2.4932   12.7984 O   0  0  0  0  0  0  0  0  0  0  0  0
   15.2755    0.2526   12.2024 C   0  0  0  0  0  0  0  0  0  0  0  0
   14.9821   -1.1086   11.8428 C   0  0  0  0  0  0  0  0  0  0  0  0
   16.1069   -1.8946   11.7409 C   0  0  0  0  0  0  0  0  0  0  0  0
   17.5276   -1.0209   12.1006 S   0  0  0  0  0  0  0  0  0  0  0  0
   16.6395    0.4155   12.3746 C   0  0  0  0  0  0  0  0  0  0  0  0
   14.1357   -1.3120   15.6407 C   0  0  0  0  0  0  0  0  0  0  0  0
   15.3386   -2.2205   15.7779 C   0  0  0  0  0  0  0  0  0  0  0  0
   17.7046   -3.3643   14.8956 H   0  0  0  0  0  0  0  0  0  0  0  0
   18.5209   -4.9183   14.6960 H   0  0  0  0  0  0  0  0  0  0  0  0
   19.0102   -3.8207   15.9937 H   0  0  0  0  0  0  0  0  0  0  0  0
   16.3283   -5.3225   15.8053 H   0  0  0  0  0  0  0  0  0  0  0  0
   17.6625   -5.6928   16.8903 H   0  0  0  0  0  0  0  0  0  0  0  0
   13.7403   -4.5410   17.7077 H   0  0  0  0  0  0  0  0  0  0  0  0
   14.1059   -4.7417   16.0021 H   0  0  0  0  0  0  0  0  0  0  0  0
   12.4120   -2.6663   17.3861 H   0  0  0  0  0  0  0  0  0  0  0  0
   11.8457   -3.8404   16.2169 H   0  0  0  0  0  0  0  0  0  0  0  0
   12.9204   -2.6047   14.3959 H   0  0  0  0  0  0  0  0  0  0  0  0
   10.4773    1.1054   15.3329 H   0  0  0  0  0  0  0  0  0  0  0  0
   10.1642    0.5155   13.6787 H   0  0  0  0  0  0  0  0  0  0  0  0
   12.4204    2.4448   14.4453 H   0  0  0  0  0  0  0  0  0  0  0  0
   10.8266    2.9764   13.8923 H   0  0  0  0  0  0  0  0  0  0  0  0
   12.3261    3.0613   11.9903 H   0  0  0  0  0  0  0  0  0  0  0  0
   11.1605    1.7921   11.7338 H   0  0  0  0  0  0  0  0  0  0  0  0
   14.1084    3.1500   12.9294 H   0  0  0  0  0  0  0  0  0  0  0  0
   13.9822   -1.4846   11.6644 H   0  0  0  0  0  0  0  0  0  0  0  0
   16.1591   -2.9414   11.4761 H   0  0  0  0  0  0  0  0  0  0  0  0
   17.1651    1.3197   12.6525 H   0  0  0  0  0  0  0  0  0  0  0  0
   14.0135   -0.7129   16.5535 H   0  0  0  0  0  0  0  0  0  0  0  0
   14.3251   -0.6005   14.8319 H   0  0  0  0  0  0  0  0  0  0  0  0
   16.2227   -1.5976   15.9456 H   0  0  0  0  0  0  0  0  0  0  0  0
   15.4904   -2.7929   14.8580 H   0  0  0  0  0  0  0  0  0  0  0  0
  1  2  1  0
  2  3  1  0
  3  4  2  0
  3  5  2  0
  3  6  1  0
  6  7  1  0
  7  8  1  0
  8  9  1  0
  9 10  1  0
 10 11  2  0
 10 12  1  0
 12 13  1  0
 13 14  1  0
 14 15  1  0
 15 16  1  0
 16 17  2  3
 17 18  1  0
 17 19  1  0
 19 20  1  0
 20 21  2  0
 21 22  1  0
 22 23  1  0
  9 24  1  0
 24 25  1  0
 25  6  1  0
 23 19  2  0
  1 26  1  0
  1 27  1  0
  1 28  1  0
  2 29  1  0
  2 30  1  0
  7 31  1  0
  7 32  1  0
  8 33  1  0
  8 34  1  0
  9 35  1  0
 13 36  1  0
 13 37  1  0
 14 38  1  0
 14 39  1  0
 15 40  1  0
 15 41  1  0
 18 42  1  0
 20 43  1  0
 21 44  1  0
 23 45  1  0
 24 46  1  0
 24 47  1  0
 25 48  1  0
 25 49  1  0
M  END
>  <Energy>  (433) 
-80.393019036118332

>  <compound_id>  (433) 
1531

>  <target_id>  (433) 
1

>  <reference_id>  (433) 
98

>  <inspiration_ids>  (433) 
[20, 98]

>  <energy_score>  (433) 
-87.91660251093602

>  <distance_score>  (433) 
1.914277997994849

>  <path>  (433) 
/opt/xchem-fragalysis-2/maxwin/BulkDock/SCRATCH/505732/C1531-P98/C1531-P98.minimised.mol

>  <scratch_subdir>  (433) 
/opt/xchem-fragalysis-2/maxwin/BulkDock/SCRATCH/505732/C1531-P98

>  <fragmenstein_runtime>  (433) 
10.082913160324097

>  <fragmenstein_outcome>  (433) 
too moved

>  <fragmenstein_mode>  (433) 
expansion

>  <fragmenstein_error>  (433) 


$$$$
C1752-P20
     RDKit          3D

 52 54  0  0  0  0  0  0  0  0999 V2000
   12.7657    6.8907   22.8940 C   0  0  0  0  0  0  0  0  0  0  0  0
   13.3132    5.5399   22.8998 N   0  0  0  0  0  0  0  0  0  0  0  0
   14.5453    5.4494   22.1147 C   0  0  0  0  0  0  0  0  0  0  0  0
   14.9428    3.9642   21.9233 C   0  0  0  0  0  0  0  0  0  0  0  0
   14.0615    3.1467   20.9715 N   0  0  0  0  0  0  0  0  0  0  0  0
   14.8012    2.0423   20.4429 C   0  0  0  0  0  0  0  0  0  0  0  0
   14.9192    0.9159   20.8472 O   0  0  0  0  0  0  0  0  0  0  0  0
   15.4775    2.4951   19.1129 C   0  0  0  0  0  0  0  0  0  0  0  0
   16.8195    2.9377   19.4062 O   0  0  0  0  0  0  0  0  0  0  0  0
   17.7269    1.8660   19.1012 C   0  0  0  0  0  0  0  0  0  0  0  0
   16.9270    0.7230   18.5102 C   0  0  0  0  0  0  0  0  0  0  0  0
   15.6656    1.4175   18.0446 C   0  0  0  0  0  0  0  0  0  0  0  0
   14.4740    0.5017   17.7747 C   0  0  0  0  0  0  0  0  0  0  0  0
   14.7526   -0.5983   16.7462 C   0  0  0  0  0  0  0  0  0  0  0  0
   15.1763   -0.0311   15.3940 C   0  0  0  0  0  0  0  0  0  0  0  0
   15.0617   -1.0198   14.3256 N   0  0  0  0  0  0  0  0  0  0  0  0
   13.9054   -1.3273   13.8711 C   0  0  0  0  0  0  0  0  0  0  0  0
   13.8545   -2.2487   12.9008 O   0  0  0  0  0  0  0  0  0  0  0  0
   12.6250   -0.8140   14.3013 C   0  0  0  0  0  0  0  0  0  0  0  0
   12.1779    0.5444   14.2149 C   0  0  0  0  0  0  0  0  0  0  0  0
   10.9375    0.7310   14.7800 C   0  0  0  0  0  0  0  0  0  0  0  0
   10.3084   -0.7151   15.4289 S   0  0  0  0  0  0  0  0  0  0  0  0
   11.6602   -1.6141   14.8876 C   0  0  0  0  0  0  0  0  0  0  0  0
   13.1068    3.2240   22.1361 C   0  0  0  0  0  0  0  0  0  0  0  0
   12.3760    4.5673   22.3382 C   0  0  0  0  0  0  0  0  0  0  0  0
   13.4795    7.5945   23.3359 H   0  0  0  0  0  0  0  0  0  0  0  0
   11.8561    6.9366   23.5028 H   0  0  0  0  0  0  0  0  0  0  0  0
   12.5206    7.2387   21.8840 H   0  0  0  0  0  0  0  0  0  0  0  0
   14.4254    5.9143   21.1270 H   0  0  0  0  0  0  0  0  0  0  0  0
   15.3536    5.9731   22.6379 H   0  0  0  0  0  0  0  0  0  0  0  0
   15.9136    4.0248   21.4121 H   0  0  0  0  0  0  0  0  0  0  0  0
   15.2283    3.4406   22.8529 H   0  0  0  0  0  0  0  0  0  0  0  0
   14.9184    3.3423   18.6985 H   0  0  0  0  0  0  0  0  0  0  0  0
   18.4609    2.2491   18.3849 H   0  0  0  0  0  0  0  0  0  0  0  0
   18.2572    1.5698   20.0113 H   0  0  0  0  0  0  0  0  0  0  0  0
   17.4735    0.2194   17.7072 H   0  0  0  0  0  0  0  0  0  0  0  0
   16.7140   -0.0278   19.2790 H   0  0  0  0  0  0  0  0  0  0  0  0
   15.9137    1.9455   17.1126 H   0  0  0  0  0  0  0  0  0  0  0  0
   13.6282    1.1111   17.4351 H   0  0  0  0  0  0  0  0  0  0  0  0
   14.1559    0.0054   18.6958 H   0  0  0  0  0  0  0  0  0  0  0  0
   13.8523   -1.2137   16.6655 H   0  0  0  0  0  0  0  0  0  0  0  0
   15.5318   -1.2768   17.1142 H   0  0  0  0  0  0  0  0  0  0  0  0
   14.6380    0.8893   15.1477 H   0  0  0  0  0  0  0  0  0  0  0  0
   16.2311    0.2635   15.4458 H   0  0  0  0  0  0  0  0  0  0  0  0
   14.7649   -2.5474   12.7347 H   0  0  0  0  0  0  0  0  0  0  0  0
   12.7463    1.3459   13.7593 H   0  0  0  0  0  0  0  0  0  0  0  0
   10.3699    1.6484   14.8446 H   0  0  0  0  0  0  0  0  0  0  0  0
   11.7006   -2.6830   15.0504 H   0  0  0  0  0  0  0  0  0  0  0  0
   12.3186    2.5248   21.8155 H   0  0  0  0  0  0  0  0  0  0  0  0
   13.4467    2.7305   23.0631 H   0  0  0  0  0  0  0  0  0  0  0  0
   11.5366    4.4228   23.0277 H   0  0  0  0  0  0  0  0  0  0  0  0
   11.9703    4.9092   21.3771 H   0  0  0  0  0  0  0  0  0  0  0  0
  1  2  1  0
  2  3  1  0
  3  4  1  0
  4  5  1  0
  5  6  1  0
  6  7  2  0
  6  8  1  0
  8  9  1  0
  9 10  1  0
 10 11  1  0
 11 12  1  0
 12 13  1  0
 13 14  1  0
 14 15  1  0
 15 16  1  0
 16 17  2  3
 17 18  1  0
 17 19  1  0
 19 20  1  0
 20 21  2  0
 21 22  1  0
 22 23  1  0
  5 24  1  0
 24 25  1  0
 25  2  1  0
 12  8  1  0
 23 19  2  0
  1 26  1  0
  1 27  1  0
  1 28  1  0
  3 29  1  0
  3 30  1  0
  4 31  1  0
  4 32  1  0
  8 33  1  0
 10 34  1  0
 10 35  1  0
 11 36  1  0
 11 37  1  0
 12 38  1  0
 13 39  1  0
 13 40  1  0
 14 41  1  0
 14 42  1  0
 15 43  1  0
 15 44  1  0
 18 45  1  0
 20 46  1  0
 21 47  1  0
 23 48  1  0
 24 49  1  0
 24 50  1  0
 25 51  1  0
 25 52  1  0
M  END
>  <Energy>  (434) 
151.68739103389674

>  <compound_id>  (434) 
1752

>  <target_id>  (434) 
1

>  <reference_id>  (434) 
20

>  <inspiration_ids>  (434) 
[20, 103]

>  <energy_score>  (434) 
-9.754758214904854

>  <distance_score>  (434) 
3.1725312479510692

>  <path>  (434) 
/opt/xchem-fragalysis-2/maxwin/BulkDock/SCRATCH/505732/C1752-P20/C1752-P20.minimised.mol

>  <scratch_subdir>  (434) 
/opt/xchem-fragalysis-2/maxwin/BulkDock/SCRATCH/505732/C1752-P20

>  <fragmenstein_runtime>  (434) 
6.233740329742432

>  <fragmenstein_outcome>  (434) 
too moved

>  <fragmenstein_mode>  (434) 
expansion

>  <fragmenstein_error>  (434) 


$$$$
C1752-P103
     RDKit          3D

 52 54  0  0  0  0  0  0  0  0999 V2000
   14.0652    7.4317   22.4610 C   0  0  0  0  0  0  0  0  0  0  0  0
   14.0845    6.0364   22.0265 N   0  0  0  0  0  0  0  0  0  0  0  0
   15.1177    5.7956   21.0127 C   0  0  0  0  0  0  0  0  0  0  0  0
   14.6453    6.2239   19.5954 C   0  0  0  0  0  0  0  0  0  0  0  0
   13.5617    5.3978   18.8941 N   0  0  0  0  0  0  0  0  0  0  0  0
   13.9738    3.9316   18.7769 C   0  0  0  0  0  0  0  0  0  0  0  0
   13.7931    3.0281   19.5118 O   0  0  0  0  0  0  0  0  0  0  0  0
   14.7452    3.8020   17.4312 C   0  0  0  0  0  0  0  0  0  0  0  0
   16.1498    3.9932   17.7139 O   0  0  0  0  0  0  0  0  0  0  0  0
   16.7674    2.6989   17.8281 C   0  0  0  0  0  0  0  0  0  0  0  0
   15.7210    1.6537   17.5312 C   0  0  0  0  0  0  0  0  0  0  0  0
   14.6809    2.4336   16.7559 C   0  0  0  0  0  0  0  0  0  0  0  0
   13.2914    1.8198   16.6057 C   0  0  0  0  0  0  0  0  0  0  0  0
   13.3449    0.3542   16.2011 C   0  0  0  0  0  0  0  0  0  0  0  0
   13.6526   -0.5853   17.3730 C   0  0  0  0  0  0  0  0  0  0  0  0
   14.9004   -1.3604   17.2314 N   0  0  0  0  0  0  0  0  0  0  0  0
   14.8501   -2.3728   16.4467 C   0  0  0  0  0  0  0  0  0  0  0  0
   15.9225   -3.1631   16.3175 O   0  0  0  0  0  0  0  0  0  0  0  0
   13.7103   -2.6871   15.6392 C   0  0  0  0  0  0  0  0  0  0  0  0
   13.4762   -2.1130   14.3526 C   0  0  0  0  0  0  0  0  0  0  0  0
   12.1648   -2.2435   13.9840 C   0  0  0  0  0  0  0  0  0  0  0  0
   11.2669   -3.1642   15.0902 S   0  0  0  0  0  0  0  0  0  0  0  0
   12.6220   -3.4048   16.0968 C   0  0  0  0  0  0  0  0  0  0  0  0
   12.7166    6.1015   19.9301 C   0  0  0  0  0  0  0  0  0  0  0  0
   12.8154    5.6387   21.4080 C   0  0  0  0  0  0  0  0  0  0  0  0
   15.0200    7.6973   22.9283 H   0  0  0  0  0  0  0  0  0  0  0  0
   13.2939    7.5805   23.2249 H   0  0  0  0  0  0  0  0  0  0  0  0
   13.8771    8.1377   21.6456 H   0  0  0  0  0  0  0  0  0  0  0  0
   16.0462    6.3196   21.2710 H   0  0  0  0  0  0  0  0  0  0  0  0
   15.3681    4.7280   21.0129 H   0  0  0  0  0  0  0  0  0  0  0  0
   14.5247    7.3149   19.4742 H   0  0  0  0  0  0  0  0  0  0  0  0
   15.5285    6.0481   18.9650 H   0  0  0  0  0  0  0  0  0  0  0  0
   14.4162    4.5883   16.7429 H   0  0  0  0  0  0  0  0  0  0  0  0
   17.1922    2.5889   18.8304 H   0  0  0  0  0  0  0  0  0  0  0  0
   17.5868    2.6615   17.1030 H   0  0  0  0  0  0  0  0  0  0  0  0
   15.3390    1.2710   18.4807 H   0  0  0  0  0  0  0  0  0  0  0  0
   16.1588    0.8265   16.9681 H   0  0  0  0  0  0  0  0  0  0  0  0
   15.0875    2.5567   15.7400 H   0  0  0  0  0  0  0  0  0  0  0  0
   12.7521    2.3844   15.8343 H   0  0  0  0  0  0  0  0  0  0  0  0
   12.7055    1.9311   17.5194 H   0  0  0  0  0  0  0  0  0  0  0  0
   14.0678    0.2472   15.3868 H   0  0  0  0  0  0  0  0  0  0  0  0
   12.3531    0.1020   15.8078 H   0  0  0  0  0  0  0  0  0  0  0  0
   13.7058   -0.0431   18.3205 H   0  0  0  0  0  0  0  0  0  0  0  0
   12.8048   -1.2577   17.4913 H   0  0  0  0  0  0  0  0  0  0  0  0
   16.6061   -2.8036   16.9055 H   0  0  0  0  0  0  0  0  0  0  0  0
   14.1983   -1.5318   13.7919 H   0  0  0  0  0  0  0  0  0  0  0  0
   11.6873   -1.8207   13.1203 H   0  0  0  0  0  0  0  0  0  0  0  0
   12.5276   -3.9519   17.0256 H   0  0  0  0  0  0  0  0  0  0  0  0
   11.7116    5.7637   19.6320 H   0  0  0  0  0  0  0  0  0  0  0  0
   12.6259    7.1922   19.7901 H   0  0  0  0  0  0  0  0  0  0  0  0
   12.7292    4.5461   21.4537 H   0  0  0  0  0  0  0  0  0  0  0  0
   11.9650    6.0297   21.9801 H   0  0  0  0  0  0  0  0  0  0  0  0
  1  2  1  0
  2  3  1  0
  3  4  1  0
  4  5  1  0
  5  6  1  0
  6  7  2  0
  6  8  1  0
  8  9  1  0
  9 10  1  0
 10 11  1  0
 11 12  1  0
 12 13  1  0
 13 14  1  0
 14 15  1  0
 15 16  1  0
 16 17  2  3
 17 18  1  0
 17 19  1  0
 19 20  1  0
 20 21  2  0
 21 22  1  0
 22 23  1  0
  5 24  1  0
 24 25  1  0
 25  2  1  0
 12  8  1  0
 23 19  2  0
  1 26  1  0
  1 27  1  0
  1 28  1  0
  3 29  1  0
  3 30  1  0
  4 31  1  0
  4 32  1  0
  8 33  1  0
 10 34  1  0
 10 35  1  0
 11 36  1  0
 11 37  1  0
 12 38  1  0
 13 39  1  0
 13 40  1  0
 14 41  1  0
 14 42  1  0
 15 43  1  0
 15 44  1  0
 18 45  1  0
 20 46  1  0
 21 47  1  0
 23 48  1  0
 24 49  1  0
 24 50  1  0
 25 51  1  0
 25 52  1  0
M  END
>  <Energy>  (435) 
183.1598884566252

>  <compound_id>  (435) 
1752

>  <target_id>  (435) 
1

>  <reference_id>  (435) 
103

>  <inspiration_ids>  (435) 
[20, 103]

>  <energy_score>  (435) 
6.045894639313104

>  <distance_score>  (435) 
1.621571072949304

>  <path>  (435) 
/opt/xchem-fragalysis-2/maxwin/BulkDock/SCRATCH/505732/C1752-P103/C1752-P103.minimised.mol

>  <scratch_subdir>  (435) 
/opt/xchem-fragalysis-2/maxwin/BulkDock/SCRATCH/505732/C1752-P103

>  <fragmenstein_runtime>  (435) 
5.146336317062378

>  <fragmenstein_outcome>  (435) 
too moved

>  <fragmenstein_mode>  (435) 
expansion

>  <fragmenstein_error>  (435) 


$$$$
C1753-P20
     RDKit          3D

 49 50  0  0  0  0  0  0  0  0999 V2000
   19.1568    0.3599   19.6281 C   0  0  0  0  0  0  0  0  0  0  0  0
   17.9803    0.5725   18.8424 O   0  0  0  0  0  0  0  0  0  0  0  0
   17.0120   -0.3752   18.9146 C   0  0  0  0  0  0  0  0  0  0  0  0
   17.0890   -1.3199   19.7894 N   0  0  0  0  0  0  0  0  0  0  0  0
   16.0320   -2.3062   19.9833 C   0  0  0  0  0  0  0  0  0  0  0  0
   16.4826   -3.7311   19.6912 C   0  0  0  0  0  0  0  0  0  0  0  0
   16.6453   -4.1038   18.2176 C   0  0  0  0  0  0  0  0  0  0  0  0
   15.6550   -3.5395   17.3049 N   0  0  0  0  0  0  0  0  0  0  0  0
   14.4052   -3.7780   17.4035 C   0  0  0  0  0  0  0  0  0  0  0  0
   13.8718   -4.5474   18.3801 O   0  0  0  0  0  0  0  0  0  0  0  0
   13.4911   -3.1643   16.4497 C   0  0  0  0  0  0  0  0  0  0  0  0
   13.8171   -2.0963   15.5356 C   0  0  0  0  0  0  0  0  0  0  0  0
   12.7515   -1.6884   14.7666 C   0  0  0  0  0  0  0  0  0  0  0  0
   11.3636   -2.6150   15.0890 S   0  0  0  0  0  0  0  0  0  0  0  0
   12.1892   -3.5711   16.2358 C   0  0  0  0  0  0  0  0  0  0  0  0
   15.8869   -0.1465   17.8562 C   0  0  0  0  0  0  0  0  0  0  0  0
   14.5083    0.0276   18.4533 C   0  0  0  0  0  0  0  0  0  0  0  0
   14.2582    1.4287   18.0828 C   0  0  0  0  0  0  0  0  0  0  0  0
   15.5920    1.7683   17.4498 C   0  0  0  0  0  0  0  0  0  0  0  0
   15.3007    3.0529   16.6491 C   0  0  0  0  0  0  0  0  0  0  0  0
   16.0650    0.6220   16.5395 N   0  0  0  0  0  0  0  0  0  0  0  0
   17.3267    1.0056   15.7793 C   0  0  0  0  0  0  0  0  0  0  0  0
   16.9046    1.5454   14.4276 C   0  0  0  0  0  0  0  0  0  0  0  0
   18.4600    0.8704   16.0673 O   0  0  0  0  0  0  0  0  0  0  0  0
   18.9197    0.4341   20.6937 H   0  0  0  0  0  0  0  0  0  0  0  0
   19.6109   -0.6077   19.3928 H   0  0  0  0  0  0  0  0  0  0  0  0
   19.8742    1.1463   19.3778 H   0  0  0  0  0  0  0  0  0  0  0  0
   15.1109   -2.1062   19.4427 H   0  0  0  0  0  0  0  0  0  0  0  0
   15.7525   -2.2565   21.0432 H   0  0  0  0  0  0  0  0  0  0  0  0
   15.7422   -4.4090   20.1340 H   0  0  0  0  0  0  0  0  0  0  0  0
   17.4246   -3.9399   20.2136 H   0  0  0  0  0  0  0  0  0  0  0  0
   17.6251   -3.7414   17.8839 H   0  0  0  0  0  0  0  0  0  0  0  0
   16.6781   -5.1944   18.1091 H   0  0  0  0  0  0  0  0  0  0  0  0
   12.9111   -4.4231   18.4694 H   0  0  0  0  0  0  0  0  0  0  0  0
   14.8023   -1.6532   15.4481 H   0  0  0  0  0  0  0  0  0  0  0  0
   12.7305   -0.9096   14.0160 H   0  0  0  0  0  0  0  0  0  0  0  0
   11.6697   -4.4077   16.6783 H   0  0  0  0  0  0  0  0  0  0  0  0
   15.8866   -1.1515   17.4260 H   0  0  0  0  0  0  0  0  0  0  0  0
   14.4604   -0.1010   19.5378 H   0  0  0  0  0  0  0  0  0  0  0  0
   13.7767   -0.6293   17.9814 H   0  0  0  0  0  0  0  0  0  0  0  0
   14.0316    2.0697   18.9410 H   0  0  0  0  0  0  0  0  0  0  0  0
   13.4265    1.4979   17.3720 H   0  0  0  0  0  0  0  0  0  0  0  0
   16.3609    2.0671   18.1756 H   0  0  0  0  0  0  0  0  0  0  0  0
   14.8461    3.8180   17.2892 H   0  0  0  0  0  0  0  0  0  0  0  0
   16.2235    3.4874   16.2534 H   0  0  0  0  0  0  0  0  0  0  0  0
   14.6231    2.8660   15.8091 H   0  0  0  0  0  0  0  0  0  0  0  0
   17.2231    2.5863   14.3337 H   0  0  0  0  0  0  0  0  0  0  0  0
   15.8250    1.4779   14.2718 H   0  0  0  0  0  0  0  0  0  0  0  0
   17.3898    0.9486   13.6493 H   0  0  0  0  0  0  0  0  0  0  0  0
  1  2  1  0
  2  3  1  0
  3  4  2  3
  4  5  1  0
  5  6  1  0
  6  7  1  0
  7  8  1  0
  8  9  2  3
  9 10  1  0
  9 11  1  0
 11 12  1  0
 12 13  2  0
 13 14  1  0
 14 15  1  0
  3 16  1  0
 16 17  1  0
 17 18  1  0
 18 19  1  0
 19 20  1  0
 19 21  1  0
 21 22  1  0
 22 23  1  0
 22 24  2  0
 15 11  2  0
 21 16  1  0
  1 25  1  0
  1 26  1  0
  1 27  1  0
  5 28  1  0
  5 29  1  0
  6 30  1  0
  6 31  1  0
  7 32  1  0
  7 33  1  0
 10 34  1  0
 12 35  1  0
 13 36  1  0
 15 37  1  0
 16 38  1  0
 17 39  1  0
 17 40  1  0
 18 41  1  0
 18 42  1  0
 19 43  1  0
 20 44  1  0
 20 45  1  0
 20 46  1  0
 23 47  1  0
 23 48  1  0
 23 49  1  0
M  END
>  <Energy>  (436) 
107.20403799801579

>  <compound_id>  (436) 
1753

>  <target_id>  (436) 
1

>  <reference_id>  (436) 
20

>  <inspiration_ids>  (436) 
[20, 106]

>  <energy_score>  (436) 
7.056108355272272

>  <distance_score>  (436) 
2.176351835101844

>  <path>  (436) 
/opt/xchem-fragalysis-2/maxwin/BulkDock/SCRATCH/505732/C1753-P20/C1753-P20.minimised.mol

>  <scratch_subdir>  (436) 
/opt/xchem-fragalysis-2/maxwin/BulkDock/SCRATCH/505732/C1753-P20

>  <fragmenstein_runtime>  (436) 
2.379457473754883

>  <fragmenstein_outcome>  (436) 
too moved

>  <fragmenstein_mode>  (436) 
expansion

>  <fragmenstein_error>  (436) 


$$$$
C1753-P106
     RDKit          3D

 49 50  0  0  0  0  0  0  0  0999 V2000
   17.7563   -0.2089   14.8108 C   0  0  0  0  0  0  0  0  0  0  0  0
   17.8494   -0.1573   16.2398 O   0  0  0  0  0  0  0  0  0  0  0  0
   16.7674    0.0135   17.0268 C   0  0  0  0  0  0  0  0  0  0  0  0
   16.7760   -0.3719   18.2600 N   0  0  0  0  0  0  0  0  0  0  0  0
   17.9193   -1.1558   18.7178 C   0  0  0  0  0  0  0  0  0  0  0  0
   17.5287   -2.6388   18.7842 C   0  0  0  0  0  0  0  0  0  0  0  0
   17.4155   -3.3368   17.4229 C   0  0  0  0  0  0  0  0  0  0  0  0
   16.2079   -2.9577   16.6955 N   0  0  0  0  0  0  0  0  0  0  0  0
   15.0690   -3.5012   16.9051 C   0  0  0  0  0  0  0  0  0  0  0  0
   14.8316   -4.4606   17.8244 O   0  0  0  0  0  0  0  0  0  0  0  0
   13.9101   -3.0653   16.1393 C   0  0  0  0  0  0  0  0  0  0  0  0
   13.9275   -2.1835   14.9981 C   0  0  0  0  0  0  0  0  0  0  0  0
   12.6760   -1.9165   14.4908 C   0  0  0  0  0  0  0  0  0  0  0  0
   11.4668   -2.7425   15.3542 S   0  0  0  0  0  0  0  0  0  0  0  0
   12.6108   -3.4553   16.4067 C   0  0  0  0  0  0  0  0  0  0  0  0
   15.4785    0.6656   16.4350 C   0  0  0  0  0  0  0  0  0  0  0  0
   14.2129    0.2033   17.1333 C   0  0  0  0  0  0  0  0  0  0  0  0
   14.0821    1.3168   18.0879 C   0  0  0  0  0  0  0  0  0  0  0  0
   15.1817    2.2429   17.5832 C   0  0  0  0  0  0  0  0  0  0  0  0
   14.6927    3.6509   17.9586 C   0  0  0  0  0  0  0  0  0  0  0  0
   15.4062    2.1409   16.0627 N   0  0  0  0  0  0  0  0  0  0  0  0
   16.4920    3.0991   15.6006 C   0  0  0  0  0  0  0  0  0  0  0  0
   15.8213    4.3786   15.1421 C   0  0  0  0  0  0  0  0  0  0  0  0
   17.6542    2.9418   15.5005 O   0  0  0  0  0  0  0  0  0  0  0  0
   17.1577   -1.0722   14.5091 H   0  0  0  0  0  0  0  0  0  0  0  0
   17.3484    0.7103   14.3905 H   0  0  0  0  0  0  0  0  0  0  0  0
   18.7680   -0.3428   14.4178 H   0  0  0  0  0  0  0  0  0  0  0  0
   18.1642   -0.8152   19.7307 H   0  0  0  0  0  0  0  0  0  0  0  0
   18.8338   -1.0193   18.1302 H   0  0  0  0  0  0  0  0  0  0  0  0
   16.5955   -2.7501   19.3490 H   0  0  0  0  0  0  0  0  0  0  0  0
   18.3092   -3.1565   19.3558 H   0  0  0  0  0  0  0  0  0  0  0  0
   18.2843   -3.0818   16.8051 H   0  0  0  0  0  0  0  0  0  0  0  0
   17.4631   -4.4245   17.5545 H   0  0  0  0  0  0  0  0  0  0  0  0
   15.6112   -4.5997   18.3774 H   0  0  0  0  0  0  0  0  0  0  0  0
   14.8342   -1.7887   14.5592 H   0  0  0  0  0  0  0  0  0  0  0  0
   12.4135   -1.2967   13.6437 H   0  0  0  0  0  0  0  0  0  0  0  0
   12.2798   -4.1339   17.1807 H   0  0  0  0  0  0  0  0  0  0  0  0
   15.4094    0.2062   15.4434 H   0  0  0  0  0  0  0  0  0  0  0  0
   14.2769   -0.7625   17.6358 H   0  0  0  0  0  0  0  0  0  0  0  0
   13.3567    0.2011   16.4512 H   0  0  0  0  0  0  0  0  0  0  0  0
   14.2544    1.0212   19.1280 H   0  0  0  0  0  0  0  0  0  0  0  0
   13.0854    1.7635   18.0185 H   0  0  0  0  0  0  0  0  0  0  0  0
   16.1369    2.1328   18.1203 H   0  0  0  0  0  0  0  0  0  0  0  0
   15.4797    4.3970   17.8176 H   0  0  0  0  0  0  0  0  0  0  0  0
   13.8229    3.9527   17.3651 H   0  0  0  0  0  0  0  0  0  0  0  0
   14.4134    3.6975   19.0180 H   0  0  0  0  0  0  0  0  0  0  0  0
   14.7312    4.3143   15.1798 H   0  0  0  0  0  0  0  0  0  0  0  0
   16.1060    4.5647   14.1020 H   0  0  0  0  0  0  0  0  0  0  0  0
   16.1609    5.2123   15.7614 H   0  0  0  0  0  0  0  0  0  0  0  0
  1  2  1  0
  2  3  1  0
  3  4  2  3
  4  5  1  0
  5  6  1  0
  6  7  1  0
  7  8  1  0
  8  9  2  3
  9 10  1  0
  9 11  1  0
 11 12  1  0
 12 13  2  0
 13 14  1  0
 14 15  1  0
  3 16  1  0
 16 17  1  0
 17 18  1  0
 18 19  1  0
 19 20  1  0
 19 21  1  0
 21 22  1  0
 22 23  1  0
 22 24  2  0
 15 11  2  0
 21 16  1  0
  1 25  1  0
  1 26  1  0
  1 27  1  0
  5 28  1  0
  5 29  1  0
  6 30  1  0
  6 31  1  0
  7 32  1  0
  7 33  1  0
 10 34  1  0
 12 35  1  0
 13 36  1  0
 15 37  1  0
 16 38  1  0
 17 39  1  0
 17 40  1  0
 18 41  1  0
 18 42  1  0
 19 43  1  0
 20 44  1  0
 20 45  1  0
 20 46  1  0
 23 47  1  0
 23 48  1  0
 23 49  1  0
M  END
>  <Energy>  (437) 
98.169524822916813

>  <compound_id>  (437) 
1753

>  <target_id>  (437) 
1

>  <reference_id>  (437) 
106

>  <inspiration_ids>  (437) 
[20, 106]

>  <energy_score>  (437) 
-1.9784048198276594

>  <distance_score>  (437) 
2.2062268564176817

>  <path>  (437) 
/opt/xchem-fragalysis-2/maxwin/BulkDock/SCRATCH/505732/C1753-P106/C1753-P106.minimised.mol

>  <scratch_subdir>  (437) 
/opt/xchem-fragalysis-2/maxwin/BulkDock/SCRATCH/505732/C1753-P106

>  <fragmenstein_runtime>  (437) 
2.379119634628296

>  <fragmenstein_outcome>  (437) 
too moved

>  <fragmenstein_mode>  (437) 
expansion

>  <fragmenstein_error>  (437) 


$$$$
C1000-P20
     RDKit          3D

 47 48  0  0  0  0  0  0  0  0999 V2000
   15.4688    0.4331   11.8441 C   0  0  0  0  0  0  0  0  0  0  0  0
   15.4134    1.8236   12.1783 O   0  0  0  0  0  0  0  0  0  0  0  0
   14.3909    2.0530   13.0500 C   0  0  0  0  0  0  0  0  0  0  0  0
   14.7250    2.0451   14.4058 C   0  0  0  0  0  0  0  0  0  0  0  0
   13.7446    2.3067   15.3646 C   0  0  0  0  0  0  0  0  0  0  0  0
   14.0393    2.2665   16.8179 C   0  0  0  0  0  0  0  0  0  0  0  0
   13.1552    2.2397   17.6560 O   0  0  0  0  0  0  0  0  0  0  0  0
   15.3726    2.1748   17.0575 O   0  0  0  0  0  0  0  0  0  0  0  0
   15.7473    1.8389   18.4093 C   0  0  0  0  0  0  0  0  0  0  0  0
   16.1700    0.3673   18.5004 C   0  0  0  0  0  0  0  0  0  0  0  0
   15.2476   -0.5349   17.6889 C   0  0  0  0  0  0  0  0  0  0  0  0
   15.5652   -1.9415   17.9079 N   0  0  0  0  0  0  0  0  0  0  0  0
   14.8351   -2.8202   17.3222 C   0  0  0  0  0  0  0  0  0  0  0  0
   15.0702   -4.1037   17.6512 O   0  0  0  0  0  0  0  0  0  0  0  0
   13.7594   -2.6192   16.3629 C   0  0  0  0  0  0  0  0  0  0  0  0
   13.7361   -1.7198   15.2387 C   0  0  0  0  0  0  0  0  0  0  0  0
   12.5397   -1.7241   14.5591 C   0  0  0  0  0  0  0  0  0  0  0  0
   11.4552   -2.8580   15.2132 S   0  0  0  0  0  0  0  0  0  0  0  0
   12.5855   -3.3519   16.3964 C   0  0  0  0  0  0  0  0  0  0  0  0
   12.4278    2.5601   14.9560 C   0  0  0  0  0  0  0  0  0  0  0  0
   12.1125    2.5960   13.5942 C   0  0  0  0  0  0  0  0  0  0  0  0
   10.8128    2.8701   13.2301 O   0  0  0  0  0  0  0  0  0  0  0  0
   10.6501    4.2865   13.1038 C   0  0  0  0  0  0  0  0  0  0  0  0
   13.0897    2.3453   12.6208 C   0  0  0  0  0  0  0  0  0  0  0  0
   12.6764    2.3700   11.3150 O   0  0  0  0  0  0  0  0  0  0  0  0
   13.5390    3.0891   10.4365 C   0  0  0  0  0  0  0  0  0  0  0  0
   16.2415    0.3036   11.0805 H   0  0  0  0  0  0  0  0  0  0  0  0
   15.7495   -0.1657   12.7173 H   0  0  0  0  0  0  0  0  0  0  0  0
   14.5188    0.0782   11.4297 H   0  0  0  0  0  0  0  0  0  0  0  0
   15.7529    1.8413   14.6958 H   0  0  0  0  0  0  0  0  0  0  0  0
   16.5881    2.4828   18.6883 H   0  0  0  0  0  0  0  0  0  0  0  0
   14.9411    2.0458   19.1223 H   0  0  0  0  0  0  0  0  0  0  0  0
   16.2084    0.0573   19.5509 H   0  0  0  0  0  0  0  0  0  0  0  0
   17.1882    0.2626   18.1047 H   0  0  0  0  0  0  0  0  0  0  0  0
   15.4101   -0.2824   16.6402 H   0  0  0  0  0  0  0  0  0  0  0  0
   14.2064   -0.3387   17.9679 H   0  0  0  0  0  0  0  0  0  0  0  0
   15.8050   -4.0884   18.2881 H   0  0  0  0  0  0  0  0  0  0  0  0
   14.5653   -1.0992   14.9279 H   0  0  0  0  0  0  0  0  0  0  0  0
   12.2592   -1.1344   13.6969 H   0  0  0  0  0  0  0  0  0  0  0  0
   12.3278   -4.1448   17.0868 H   0  0  0  0  0  0  0  0  0  0  0  0
   11.6510    2.7436   15.6958 H   0  0  0  0  0  0  0  0  0  0  0  0
   11.2930    4.6916   12.3147 H   0  0  0  0  0  0  0  0  0  0  0  0
    9.6102    4.4788   12.8236 H   0  0  0  0  0  0  0  0  0  0  0  0
   10.8423    4.7960   14.0544 H   0  0  0  0  0  0  0  0  0  0  0  0
   12.9233    3.4860    9.6232 H   0  0  0  0  0  0  0  0  0  0  0  0
   14.0277    3.9386   10.9270 H   0  0  0  0  0  0  0  0  0  0  0  0
   14.2757    2.4153    9.9907 H   0  0  0  0  0  0  0  0  0  0  0  0
  1  2  1  0
  2  3  1  0
  3  4  2  0
  4  5  1  0
  5  6  1  0
  6  7  2  0
  6  8  1  0
  8  9  1  0
  9 10  1  0
 10 11  1  0
 11 12  1  0
 12 13  2  3
 13 14  1  0
 13 15  1  0
 15 16  1  0
 16 17  2  0
 17 18  1  0
 18 19  1  0
  5 20  2  0
 20 21  1  0
 21 22  1  0
 22 23  1  0
 21 24  2  0
 24 25  1  0
 25 26  1  0
 24  3  1  0
 19 15  2  0
  1 27  1  0
  1 28  1  0
  1 29  1  0
  4 30  1  0
  9 31  1  0
  9 32  1  0
 10 33  1  0
 10 34  1  0
 11 35  1  0
 11 36  1  0
 14 37  1  0
 16 38  1  0
 17 39  1  0
 19 40  1  0
 20 41  1  0
 23 42  1  0
 23 43  1  0
 23 44  1  0
 26 45  1  0
 26 46  1  0
 26 47  1  0
M  END
>  <Energy>  (438) 
50.851207331195752

>  <compound_id>  (438) 
1000

>  <target_id>  (438) 
1

>  <reference_id>  (438) 
20

>  <inspiration_ids>  (438) 
[20, 111]

>  <energy_score>  (438) 
-44.895682543810565

>  <distance_score>  (438) 
1.3072993374188406

>  <path>  (438) 
/opt/xchem-fragalysis-2/maxwin/BulkDock/SCRATCH/505732/C1000-P20/C1000-P20.minimised.mol

>  <scratch_subdir>  (438) 
/opt/xchem-fragalysis-2/maxwin/BulkDock/SCRATCH/505732/C1000-P20

>  <fragmenstein_runtime>  (438) 
4.07822060585022

>  <fragmenstein_outcome>  (438) 
too moved

>  <fragmenstein_mode>  (438) 
expansion

>  <fragmenstein_error>  (438) 


$$$$
C1000-P111
     RDKit          3D

 47 48  0  0  0  0  0  0  0  0999 V2000
   15.3854    0.4324   11.8338 C   0  0  0  0  0  0  0  0  0  0  0  0
   15.3190    1.8186   12.1850 O   0  0  0  0  0  0  0  0  0  0  0  0
   14.2044    2.0550   12.9342 C   0  0  0  0  0  0  0  0  0  0  0  0
   14.3778    2.0083   14.3178 C   0  0  0  0  0  0  0  0  0  0  0  0
   13.3005    2.2786   15.1664 C   0  0  0  0  0  0  0  0  0  0  0  0
   13.4377    2.2483   16.6435 C   0  0  0  0  0  0  0  0  0  0  0  0
   12.5081    2.4652   17.4022 O   0  0  0  0  0  0  0  0  0  0  0  0
   14.7034    1.9134   16.9886 O   0  0  0  0  0  0  0  0  0  0  0  0
   14.9411    1.6516   18.3814 C   0  0  0  0  0  0  0  0  0  0  0  0
   14.7847    0.1570   18.6361 C   0  0  0  0  0  0  0  0  0  0  0  0
   15.8390   -0.6622   17.8943 C   0  0  0  0  0  0  0  0  0  0  0  0
   15.6501   -2.0793   18.1371 N   0  0  0  0  0  0  0  0  0  0  0  0
   14.7874   -2.8369   17.5820 C   0  0  0  0  0  0  0  0  0  0  0  0
   14.7650   -4.1026   18.0427 O   0  0  0  0  0  0  0  0  0  0  0  0
   13.8004   -2.5360   16.5519 C   0  0  0  0  0  0  0  0  0  0  0  0
   13.8418   -1.5571   15.5001 C   0  0  0  0  0  0  0  0  0  0  0  0
   12.7094   -1.5410   14.7137 C   0  0  0  0  0  0  0  0  0  0  0  0
   11.5853   -2.7199   15.2023 S   0  0  0  0  0  0  0  0  0  0  0  0
   12.6291   -3.2732   16.4364 C   0  0  0  0  0  0  0  0  0  0  0  0
   12.0493    2.5850   14.6194 C   0  0  0  0  0  0  0  0  0  0  0  0
   11.8960    2.6635   13.2326 C   0  0  0  0  0  0  0  0  0  0  0  0
   10.6565    3.0217   12.7493 O   0  0  0  0  0  0  0  0  0  0  0  0
   10.6315    4.4401   12.5438 C   0  0  0  0  0  0  0  0  0  0  0  0
   12.9696    2.3990   12.3685 C   0  0  0  0  0  0  0  0  0  0  0  0
   12.7046    2.4674   11.0269 O   0  0  0  0  0  0  0  0  0  0  0  0
   13.6960    3.1406   10.2551 C   0  0  0  0  0  0  0  0  0  0  0  0
   15.5388   -0.1882   12.7233 H   0  0  0  0  0  0  0  0  0  0  0  0
   14.4877    0.1093   11.2955 H   0  0  0  0  0  0  0  0  0  0  0  0
   16.2457    0.2965   11.1718 H   0  0  0  0  0  0  0  0  0  0  0  0
   15.3636    1.7785   14.7148 H   0  0  0  0  0  0  0  0  0  0  0  0
   15.9608    1.9795   18.6091 H   0  0  0  0  0  0  0  0  0  0  0  0
   14.2646    2.2306   19.0201 H   0  0  0  0  0  0  0  0  0  0  0  0
   13.7909   -0.1550   18.3049 H   0  0  0  0  0  0  0  0  0  0  0  0
   14.8506   -0.0431   19.7117 H   0  0  0  0  0  0  0  0  0  0  0  0
   16.8260   -0.3923   18.2903 H   0  0  0  0  0  0  0  0  0  0  0  0
   15.8956   -0.4237   16.8325 H   0  0  0  0  0  0  0  0  0  0  0  0
   15.4503   -4.1432   18.7317 H   0  0  0  0  0  0  0  0  0  0  0  0
   14.6731   -0.8996   15.2958 H   0  0  0  0  0  0  0  0  0  0  0  0
   12.4951   -0.9069   13.8640 H   0  0  0  0  0  0  0  0  0  0  0  0
   12.3259   -4.1154   17.0461 H   0  0  0  0  0  0  0  0  0  0  0  0
   11.2008    2.7915   15.2678 H   0  0  0  0  0  0  0  0  0  0  0  0
   11.1648    4.7036   11.6249 H   0  0  0  0  0  0  0  0  0  0  0  0
    9.5864    4.7413   12.4319 H   0  0  0  0  0  0  0  0  0  0  0  0
   11.0449    4.9910   13.3967 H   0  0  0  0  0  0  0  0  0  0  0  0
   13.1956    3.5742    9.3835 H   0  0  0  0  0  0  0  0  0  0  0  0
   14.1725    3.9602   10.8046 H   0  0  0  0  0  0  0  0  0  0  0  0
   14.4393    2.4291    9.8854 H   0  0  0  0  0  0  0  0  0  0  0  0
  1  2  1  0
  2  3  1  0
  3  4  2  0
  4  5  1  0
  5  6  1  0
  6  7  2  0
  6  8  1  0
  8  9  1  0
  9 10  1  0
 10 11  1  0
 11 12  1  0
 12 13  2  3
 13 14  1  0
 13 15  1  0
 15 16  1  0
 16 17  2  0
 17 18  1  0
 18 19  1  0
  5 20  2  0
 20 21  1  0
 21 22  1  0
 22 23  1  0
 21 24  2  0
 24 25  1  0
 25 26  1  0
 24  3  1  0
 19 15  2  0
  1 27  1  0
  1 28  1  0
  1 29  1  0
  4 30  1  0
  9 31  1  0
  9 32  1  0
 10 33  1  0
 10 34  1  0
 11 35  1  0
 11 36  1  0
 14 37  1  0
 16 38  1  0
 17 39  1  0
 19 40  1  0
 20 41  1  0
 23 42  1  0
 23 43  1  0
 23 44  1  0
 26 45  1  0
 26 46  1  0
 26 47  1  0
M  END
>  <Energy>  (439) 
49.508480942838602

>  <compound_id>  (439) 
1000

>  <target_id>  (439) 
1

>  <reference_id>  (439) 
111

>  <inspiration_ids>  (439) 
[20, 111]

>  <energy_score>  (439) 
-46.23840893216714

>  <distance_score>  (439) 
1.2917684059926773

>  <path>  (439) 
/opt/xchem-fragalysis-2/maxwin/BulkDock/SCRATCH/505732/C1000-P111/C1000-P111.minimised.mol

>  <scratch_subdir>  (439) 
/opt/xchem-fragalysis-2/maxwin/BulkDock/SCRATCH/505732/C1000-P111

>  <fragmenstein_runtime>  (439) 
3.821470260620117

>  <fragmenstein_outcome>  (439) 
too moved

>  <fragmenstein_mode>  (439) 
expansion

>  <fragmenstein_error>  (439) 


$$$$
C1754-P20
     RDKit          3D

 53 55  0  0  0  0  0  0  0  0999 V2000
   12.6677    5.9920   19.8013 C   0  0  0  0  0  0  0  0  0  0  0  0
   12.9819    5.3378   18.5733 O   0  0  0  0  0  0  0  0  0  0  0  0
   14.2465    4.8259   18.5210 C   0  0  0  0  0  0  0  0  0  0  0  0
   15.0825    4.9540   19.4084 O   0  0  0  0  0  0  0  0  0  0  0  0
   14.4897    4.1252   17.1822 C   0  0  0  0  0  0  0  0  0  0  0  0
   14.5632    5.1581   16.0430 C   0  0  0  0  0  0  0  0  0  0  0  0
   13.7916    5.0739   14.8745 C   0  0  0  0  0  0  0  0  0  0  0  0
   13.9005    6.0381   13.8655 C   0  0  0  0  0  0  0  0  0  0  0  0
   14.7775    7.1171   13.9997 C   0  0  0  0  0  0  0  0  0  0  0  0
   14.9161    8.1290   12.9020 C   0  0  0  0  0  0  0  0  0  0  0  0
   15.5666    7.2030   15.1479 C   0  0  0  0  0  0  0  0  0  0  0  0
   15.4582    6.2403   16.1552 C   0  0  0  0  0  0  0  0  0  0  0  0
   13.4477    2.9938   17.0463 C   0  0  0  0  0  0  0  0  0  0  0  0
   14.0854    1.8449   16.3649 N   0  0  0  0  0  0  0  0  0  0  0  0
   15.5015    2.2048   16.1685 C   0  0  0  0  0  0  0  0  0  0  0  0
   16.4803    1.0280   16.2214 C   0  0  0  0  0  0  0  0  0  0  0  0
   16.5440    0.2670   17.5608 C   0  0  0  0  0  0  0  0  0  0  0  0
   16.9184   -1.2117   17.3662 C   0  0  0  0  0  0  0  0  0  0  0  0
   15.9059   -1.7737   16.4865 N   0  0  0  0  0  0  0  0  0  0  0  0
   14.8654   -2.3024   17.0082 C   0  0  0  0  0  0  0  0  0  0  0  0
   14.7704   -2.6527   18.3075 O   0  0  0  0  0  0  0  0  0  0  0  0
   13.6877   -2.4336   16.1724 C   0  0  0  0  0  0  0  0  0  0  0  0
   13.4532   -1.6045   15.0169 C   0  0  0  0  0  0  0  0  0  0  0  0
   12.2280   -1.8167   14.4391 C   0  0  0  0  0  0  0  0  0  0  0  0
   11.3700   -3.0438   15.2369 S   0  0  0  0  0  0  0  0  0  0  0  0
   12.6287   -3.2974   16.3675 C   0  0  0  0  0  0  0  0  0  0  0  0
   15.7749    3.2786   17.2116 C   0  0  0  0  0  0  0  0  0  0  0  0
   12.7719    5.3015   20.6442 H   0  0  0  0  0  0  0  0  0  0  0  0
   13.3040    6.8717   19.9387 H   0  0  0  0  0  0  0  0  0  0  0  0
   11.6263    6.3221   19.7527 H   0  0  0  0  0  0  0  0  0  0  0  0
   13.0972    4.2559   14.7093 H   0  0  0  0  0  0  0  0  0  0  0  0
   13.2922    5.9370   12.9692 H   0  0  0  0  0  0  0  0  0  0  0  0
   15.1955    9.1078   13.3057 H   0  0  0  0  0  0  0  0  0  0  0  0
   13.9691    8.2571   12.3672 H   0  0  0  0  0  0  0  0  0  0  0  0
   15.6834    7.8073   12.1911 H   0  0  0  0  0  0  0  0  0  0  0  0
   16.2740    8.0204   15.2696 H   0  0  0  0  0  0  0  0  0  0  0  0
   16.0916    6.3444   17.0360 H   0  0  0  0  0  0  0  0  0  0  0  0
   12.5233    3.2934   16.5433 H   0  0  0  0  0  0  0  0  0  0  0  0
   13.1453    2.6283   18.0360 H   0  0  0  0  0  0  0  0  0  0  0  0
   13.6522    1.6816   15.4570 H   0  0  0  0  0  0  0  0  0  0  0  0
   15.5962    2.6539   15.1704 H   0  0  0  0  0  0  0  0  0  0  0  0
   17.4896    1.3955   15.9934 H   0  0  0  0  0  0  0  0  0  0  0  0
   16.2242    0.3569   15.3940 H   0  0  0  0  0  0  0  0  0  0  0  0
   15.5771    0.3184   18.0753 H   0  0  0  0  0  0  0  0  0  0  0  0
   17.2803    0.7439   18.2181 H   0  0  0  0  0  0  0  0  0  0  0  0
   16.9936   -1.7218   18.3327 H   0  0  0  0  0  0  0  0  0  0  0  0
   17.8986   -1.2929   16.8840 H   0  0  0  0  0  0  0  0  0  0  0  0
   13.8865   -2.9639   18.5456 H   0  0  0  0  0  0  0  0  0  0  0  0
   14.1558   -0.8610   14.6583 H   0  0  0  0  0  0  0  0  0  0  0  0
   11.7983   -1.3133   13.5856 H   0  0  0  0  0  0  0  0  0  0  0  0
   12.5121   -4.0675   17.1172 H   0  0  0  0  0  0  0  0  0  0  0  0
   16.6819    3.8458   16.9749 H   0  0  0  0  0  0  0  0  0  0  0  0
   15.9226    2.8355   18.2049 H   0  0  0  0  0  0  0  0  0  0  0  0
  1  2  1  0
  2  3  1  0
  3  4  2  0
  3  5  1  0
  5  6  1  0
  6  7  2  0
  7  8  1  0
  8  9  2  0
  9 10  1  0
  9 11  1  0
 11 12  2  0
  5 13  1  0
 13 14  1  0
 14 15  1  0
 15 16  1  0
 16 17  1  0
 17 18  1  0
 18 19  1  0
 19 20  2  3
 20 21  1  0
 20 22  1  0
 22 23  1  0
 23 24  2  0
 24 25  1  0
 25 26  1  0
 15 27  1  0
 27  5  1  0
 12  6  1  0
 26 22  2  0
  1 28  1  0
  1 29  1  0
  1 30  1  0
  7 31  1  0
  8 32  1  0
 10 33  1  0
 10 34  1  0
 10 35  1  0
 11 36  1  0
 12 37  1  0
 13 38  1  0
 13 39  1  0
 14 40  1  0
 15 41  1  0
 16 42  1  0
 16 43  1  0
 17 44  1  0
 17 45  1  0
 18 46  1  0
 18 47  1  0
 21 48  1  0
 23 49  1  0
 24 50  1  0
 26 51  1  0
 27 52  1  0
 27 53  1  0
M  END
>  <Energy>  (440) 
53.113010759970457

>  <compound_id>  (440) 
1754

>  <target_id>  (440) 
1

>  <reference_id>  (440) 
20

>  <inspiration_ids>  (440) 
[20, 113]

>  <energy_score>  (440) 
-54.16044940844145

>  <distance_score>  (440) 
1.4676817129468183

>  <path>  (440) 
/opt/xchem-fragalysis-2/maxwin/BulkDock/SCRATCH/505732/C1754-P20/C1754-P20.minimised.mol

>  <scratch_subdir>  (440) 
/opt/xchem-fragalysis-2/maxwin/BulkDock/SCRATCH/505732/C1754-P20

>  <fragmenstein_runtime>  (440) 
1.7972924709320068

>  <fragmenstein_outcome>  (440) 
too moved

>  <fragmenstein_mode>  (440) 
expansion

>  <fragmenstein_error>  (440) 


$$$$
C1754-P113
     RDKit          3D

 53 55  0  0  0  0  0  0  0  0999 V2000
   18.4876    6.7989   18.5085 C   0  0  0  0  0  0  0  0  0  0  0  0
   17.8826    5.8046   17.6810 O   0  0  0  0  0  0  0  0  0  0  0  0
   16.8304    6.2610   16.9400 C   0  0  0  0  0  0  0  0  0  0  0  0
   16.4241    7.4177   16.9606 O   0  0  0  0  0  0  0  0  0  0  0  0
   16.2566    5.1614   16.0443 C   0  0  0  0  0  0  0  0  0  0  0  0
   16.9717    5.1690   14.6827 C   0  0  0  0  0  0  0  0  0  0  0  0
   18.3114    4.7438   14.5963 C   0  0  0  0  0  0  0  0  0  0  0  0
   19.0007    4.7423   13.3799 C   0  0  0  0  0  0  0  0  0  0  0  0
   18.3713    5.1672   12.2094 C   0  0  0  0  0  0  0  0  0  0  0  0
   19.1182    5.2010   10.9098 C   0  0  0  0  0  0  0  0  0  0  0  0
   17.0537    5.6231   12.2840 C   0  0  0  0  0  0  0  0  0  0  0  0
   16.3640    5.6242   13.5024 C   0  0  0  0  0  0  0  0  0  0  0  0
   14.7258    5.3492   16.0203 C   0  0  0  0  0  0  0  0  0  0  0  0
   14.1450    4.0512   15.6288 N   0  0  0  0  0  0  0  0  0  0  0  0
   15.1062    3.0249   16.0752 C   0  0  0  0  0  0  0  0  0  0  0  0
   14.4148    2.0608   17.0359 C   0  0  0  0  0  0  0  0  0  0  0  0
   15.3168    0.8909   17.4358 C   0  0  0  0  0  0  0  0  0  0  0  0
   14.5268   -0.1241   18.2537 C   0  0  0  0  0  0  0  0  0  0  0  0
   15.1406   -1.4445   18.1576 N   0  0  0  0  0  0  0  0  0  0  0  0
   14.6338   -2.3323   17.3862 C   0  0  0  0  0  0  0  0  0  0  0  0
   15.1667   -3.5652   17.4629 O   0  0  0  0  0  0  0  0  0  0  0  0
   13.5470   -2.1955   16.4382 C   0  0  0  0  0  0  0  0  0  0  0  0
   13.4363   -1.2288   15.3799 C   0  0  0  0  0  0  0  0  0  0  0  0
   12.2787   -1.3606   14.6467 C   0  0  0  0  0  0  0  0  0  0  0  0
   11.3267   -2.6582   15.2006 S   0  0  0  0  0  0  0  0  0  0  0  0
   12.4654   -3.0568   16.4132 C   0  0  0  0  0  0  0  0  0  0  0  0
   16.2854    3.7691   16.7054 C   0  0  0  0  0  0  0  0  0  0  0  0
   18.8971    7.6089   17.8969 H   0  0  0  0  0  0  0  0  0  0  0  0
   17.7651    7.1856   19.2340 H   0  0  0  0  0  0  0  0  0  0  0  0
   19.3096    6.3291   19.0557 H   0  0  0  0  0  0  0  0  0  0  0  0
   18.8474    4.4136   15.4847 H   0  0  0  0  0  0  0  0  0  0  0  0
   20.0363    4.4098   13.3570 H   0  0  0  0  0  0  0  0  0  0  0  0
   19.6200    6.1663   10.7913 H   0  0  0  0  0  0  0  0  0  0  0  0
   18.4386    5.0490   10.0647 H   0  0  0  0  0  0  0  0  0  0  0  0
   19.8686    4.4045   10.8697 H   0  0  0  0  0  0  0  0  0  0  0  0
   16.5504    5.9890   11.3913 H   0  0  0  0  0  0  0  0  0  0  0  0
   15.3454    6.0008   13.4928 H   0  0  0  0  0  0  0  0  0  0  0  0
   14.3757    6.1556   15.3691 H   0  0  0  0  0  0  0  0  0  0  0  0
   14.3472    5.5908   17.0235 H   0  0  0  0  0  0  0  0  0  0  0  0
   14.0969    4.0141   14.6089 H   0  0  0  0  0  0  0  0  0  0  0  0
   15.4538    2.4749   15.1911 H   0  0  0  0  0  0  0  0  0  0  0  0
   14.0775    2.5885   17.9378 H   0  0  0  0  0  0  0  0  0  0  0  0
   13.5117    1.6696   16.5491 H   0  0  0  0  0  0  0  0  0  0  0  0
   16.1723    1.2447   18.0232 H   0  0  0  0  0  0  0  0  0  0  0  0
   15.7348    0.4245   16.5366 H   0  0  0  0  0  0  0  0  0  0  0  0
   13.4719   -0.1367   17.9643 H   0  0  0  0  0  0  0  0  0  0  0  0
   14.5309    0.1814   19.3069 H   0  0  0  0  0  0  0  0  0  0  0  0
   15.8837   -3.5058   18.1156 H   0  0  0  0  0  0  0  0  0  0  0  0
   14.1807   -0.4782   15.1515 H   0  0  0  0  0  0  0  0  0  0  0  0
   11.9491   -0.7706   13.8015 H   0  0  0  0  0  0  0  0  0  0  0  0
   12.2923   -3.9122   17.0539 H   0  0  0  0  0  0  0  0  0  0  0  0
   17.2206    3.2190   16.5618 H   0  0  0  0  0  0  0  0  0  0  0  0
   16.1379    3.8646   17.7904 H   0  0  0  0  0  0  0  0  0  0  0  0
  1  2  1  0
  2  3  1  0
  3  4  2  0
  3  5  1  0
  5  6  1  0
  6  7  2  0
  7  8  1  0
  8  9  2  0
  9 10  1  0
  9 11  1  0
 11 12  2  0
  5 13  1  0
 13 14  1  0
 14 15  1  0
 15 16  1  0
 16 17  1  0
 17 18  1  0
 18 19  1  0
 19 20  2  3
 20 21  1  0
 20 22  1  0
 22 23  1  0
 23 24  2  0
 24 25  1  0
 25 26  1  0
 15 27  1  0
 27  5  1  0
 12  6  1  0
 26 22  2  0
  1 28  1  0
  1 29  1  0
  1 30  1  0
  7 31  1  0
  8 32  1  0
 10 33  1  0
 10 34  1  0
 10 35  1  0
 11 36  1  0
 12 37  1  0
 13 38  1  0
 13 39  1  0
 14 40  1  0
 15 41  1  0
 16 42  1  0
 16 43  1  0
 17 44  1  0
 17 45  1  0
 18 46  1  0
 18 47  1  0
 21 48  1  0
 23 49  1  0
 24 50  1  0
 26 51  1  0
 27 52  1  0
 27 53  1  0
M  END
>  <Energy>  (441) 
47.418956927215469

>  <compound_id>  (441) 
1754

>  <target_id>  (441) 
1

>  <reference_id>  (441) 
113

>  <inspiration_ids>  (441) 
[20, 113]

>  <energy_score>  (441) 
-64.14980640370405

>  <distance_score>  (441) 
1.7659223613348163

>  <path>  (441) 
/opt/xchem-fragalysis-2/maxwin/BulkDock/SCRATCH/505732/C1754-P113/C1754-P113.minimised.mol

>  <scratch_subdir>  (441) 
/opt/xchem-fragalysis-2/maxwin/BulkDock/SCRATCH/505732/C1754-P113

>  <fragmenstein_runtime>  (441) 
3.578383684158325

>  <fragmenstein_outcome>  (441) 
too moved

>  <fragmenstein_mode>  (441) 
expansion

>  <fragmenstein_error>  (441) 


$$$$
C1759-P20
     RDKit          3D

 39 41  0  0  0  0  0  0  0  0999 V2000
   17.6443   -2.3614   16.7937 O   0  0  0  0  0  0  0  0  0  0  0  0
   16.2934   -2.5422   16.3526 C   0  0  0  0  0  0  0  0  0  0  0  0
   15.2475   -2.3632   17.5129 C   0  0  0  0  0  0  0  0  0  0  0  0
   13.8782   -2.2946   16.7625 C   0  0  0  0  0  0  0  0  0  0  0  0
   13.5014   -1.1939   15.9635 C   0  0  0  0  0  0  0  0  0  0  0  0
   12.3304   -1.1944   15.1976 C   0  0  0  0  0  0  0  0  0  0  0  0
   11.5064   -2.3063   15.1974 C   0  0  0  0  0  0  0  0  0  0  0  0
   11.8603   -3.4109   15.9510 C   0  0  0  0  0  0  0  0  0  0  0  0
   13.0234   -3.4097   16.7172 C   0  0  0  0  0  0  0  0  0  0  0  0
   15.3372   -3.5875   18.5112 C   0  0  0  0  0  0  0  0  0  0  0  0
   14.4879   -3.6489   19.6370 C   0  0  0  0  0  0  0  0  0  0  0  0
   14.5696   -4.6797   20.5779 C   0  0  0  0  0  0  0  0  0  0  0  0
   15.5176   -5.6820   20.4278 C   0  0  0  0  0  0  0  0  0  0  0  0
   16.3775   -5.6508   19.3367 C   0  0  0  0  0  0  0  0  0  0  0  0
   16.2901   -4.6190   18.3929 C   0  0  0  0  0  0  0  0  0  0  0  0
   15.7094   -1.1853   18.3305 N   0  0  0  0  0  0  0  0  0  0  0  0
   16.2298    0.0265   17.6585 C   0  0  0  0  0  0  0  0  0  0  0  0
   15.5736    0.8708   18.7771 C   0  0  0  0  0  0  0  0  0  0  0  0
   16.4320    1.2781   19.8675 O   0  0  0  0  0  0  0  0  0  0  0  0
   14.6829   -0.3751   18.9933 C   0  0  0  0  0  0  0  0  0  0  0  0
   17.5941   -2.1004   17.7359 H   0  0  0  0  0  0  0  0  0  0  0  0
   16.1464   -1.8030   15.5565 H   0  0  0  0  0  0  0  0  0  0  0  0
   16.2122   -3.5216   15.8655 H   0  0  0  0  0  0  0  0  0  0  0  0
   14.1216   -0.3096   15.8909 H   0  0  0  0  0  0  0  0  0  0  0  0
   12.0739   -0.3329   14.5856 H   0  0  0  0  0  0  0  0  0  0  0  0
   10.6010   -2.3229   14.6016 H   0  0  0  0  0  0  0  0  0  0  0  0
   11.2379   -4.2961   15.9369 H   0  0  0  0  0  0  0  0  0  0  0  0
   13.2480   -4.3224   17.2600 H   0  0  0  0  0  0  0  0  0  0  0  0
   13.7501   -2.8769   19.8139 H   0  0  0  0  0  0  0  0  0  0  0  0
   13.8994   -4.6790   21.4343 H   0  0  0  0  0  0  0  0  0  0  0  0
   15.5947   -6.4799   21.1607 H   0  0  0  0  0  0  0  0  0  0  0  0
   17.1265   -6.4301   19.2147 H   0  0  0  0  0  0  0  0  0  0  0  0
   17.0091   -4.6487   17.5781 H   0  0  0  0  0  0  0  0  0  0  0  0
   15.8631    0.2632   16.6594 H   0  0  0  0  0  0  0  0  0  0  0  0
   17.3221    0.1042   17.6380 H   0  0  0  0  0  0  0  0  0  0  0  0
   15.0209    1.7414   18.4067 H   0  0  0  0  0  0  0  0  0  0  0  0
   15.8366    1.3886   20.6279 H   0  0  0  0  0  0  0  0  0  0  0  0
   14.4962   -0.6271   20.0407 H   0  0  0  0  0  0  0  0  0  0  0  0
   13.7346   -0.2691   18.4705 H   0  0  0  0  0  0  0  0  0  0  0  0
  1  2  1  0
  2  3  1  0
  3  4  1  0
  4  5  2  0
  5  6  1  0
  6  7  2  0
  7  8  1  0
  8  9  2  0
  3 10  1  0
 10 11  2  0
 11 12  1  0
 12 13  2  0
 13 14  1  0
 14 15  2  0
  3 16  1  0
 16 17  1  0
 17 18  1  0
 18 19  1  0
 18 20  1  0
  9  4  1  0
 15 10  1  0
 20 16  1  0
  1 21  1  0
  2 22  1  0
  2 23  1  0
  5 24  1  0
  6 25  1  0
  7 26  1  0
  8 27  1  0
  9 28  1  0
 11 29  1  0
 12 30  1  0
 13 31  1  0
 14 32  1  0
 15 33  1  0
 17 34  1  0
 17 35  1  0
 18 36  1  0
 19 37  1  0
 20 38  1  0
 20 39  1  0
M  END
>  <Energy>  (442) 
151.48397609669885

>  <compound_id>  (442) 
1759

>  <target_id>  (442) 
1

>  <reference_id>  (442) 
20

>  <inspiration_ids>  (442) 
[20, 191]

>  <energy_score>  (442) 
-28.150186264472666

>  <distance_score>  (442) 
1.71231570249636

>  <path>  (442) 
/opt/xchem-fragalysis-2/maxwin/BulkDock/SCRATCH/505732/C1759-P20/C1759-P20.minimised.mol

>  <scratch_subdir>  (442) 
/opt/xchem-fragalysis-2/maxwin/BulkDock/SCRATCH/505732/C1759-P20

>  <fragmenstein_runtime>  (442) 
16.589207410812378

>  <fragmenstein_outcome>  (442) 
too moved

>  <fragmenstein_mode>  (442) 
expansion

>  <fragmenstein_error>  (442) 


$$$$
C1759-P191
     RDKit          3D

 39 41  0  0  0  0  0  0  0  0999 V2000
   17.2631   -1.3988   16.5603 O   0  0  0  0  0  0  0  0  0  0  0  0
   16.8909   -2.7550   16.8265 C   0  0  0  0  0  0  0  0  0  0  0  0
   15.6362   -2.9586   17.7764 C   0  0  0  0  0  0  0  0  0  0  0  0
   14.3214   -2.7159   16.9556 C   0  0  0  0  0  0  0  0  0  0  0  0
   14.2200   -1.7177   15.9597 C   0  0  0  0  0  0  0  0  0  0  0  0
   13.0855   -1.5828   15.1450 C   0  0  0  0  0  0  0  0  0  0  0  0
   12.0206   -2.4571   15.2897 C   0  0  0  0  0  0  0  0  0  0  0  0
   12.0915   -3.4372   16.2697 C   0  0  0  0  0  0  0  0  0  0  0  0
   13.2020   -3.5486   17.1114 C   0  0  0  0  0  0  0  0  0  0  0  0
   15.8029   -4.4838   18.2096 C   0  0  0  0  0  0  0  0  0  0  0  0
   15.8860   -5.5002   17.2367 C   0  0  0  0  0  0  0  0  0  0  0  0
   16.0939   -6.8426   17.5694 C   0  0  0  0  0  0  0  0  0  0  0  0
   16.2446   -7.2123   18.8983 C   0  0  0  0  0  0  0  0  0  0  0  0
   16.1934   -6.2374   19.8864 C   0  0  0  0  0  0  0  0  0  0  0  0
   15.9843   -4.8945   19.5457 C   0  0  0  0  0  0  0  0  0  0  0  0
   15.8609   -2.0744   18.9720 N   0  0  0  0  0  0  0  0  0  0  0  0
   15.8121   -0.6184   18.7793 C   0  0  0  0  0  0  0  0  0  0  0  0
   14.5735   -0.5158   19.6609 C   0  0  0  0  0  0  0  0  0  0  0  0
   14.6400    0.3638   20.8035 O   0  0  0  0  0  0  0  0  0  0  0  0
   14.7479   -2.0208   19.9248 C   0  0  0  0  0  0  0  0  0  0  0  0
   17.7728   -1.1111   17.3399 H   0  0  0  0  0  0  0  0  0  0  0  0
   16.7239   -3.2187   15.8471 H   0  0  0  0  0  0  0  0  0  0  0  0
   17.7846   -3.2324   17.2513 H   0  0  0  0  0  0  0  0  0  0  0  0
   15.0431   -1.0312   15.7717 H   0  0  0  0  0  0  0  0  0  0  0  0
   13.0568   -0.8095   14.3805 H   0  0  0  0  0  0  0  0  0  0  0  0
   11.1515   -2.3841   14.6401 H   0  0  0  0  0  0  0  0  0  0  0  0
   11.2847   -4.1501   16.3736 H   0  0  0  0  0  0  0  0  0  0  0  0
   13.1890   -4.3334   17.8662 H   0  0  0  0  0  0  0  0  0  0  0  0
   15.8281   -5.2541   16.1857 H   0  0  0  0  0  0  0  0  0  0  0  0
   16.1518   -7.5929   16.7837 H   0  0  0  0  0  0  0  0  0  0  0  0
   16.4087   -8.2539   19.1630 H   0  0  0  0  0  0  0  0  0  0  0  0
   16.3368   -6.5149   20.9279 H   0  0  0  0  0  0  0  0  0  0  0  0
   16.0113   -4.1800   20.3616 H   0  0  0  0  0  0  0  0  0  0  0  0
   15.6378   -0.2184   17.7793 H   0  0  0  0  0  0  0  0  0  0  0  0
   16.6881   -0.1040   19.1924 H   0  0  0  0  0  0  0  0  0  0  0  0
   13.7130   -0.2597   19.0403 H   0  0  0  0  0  0  0  0  0  0  0  0
   14.0255   -0.0212   21.4554 H   0  0  0  0  0  0  0  0  0  0  0  0
   15.0540   -2.2293   20.9579 H   0  0  0  0  0  0  0  0  0  0  0  0
   13.8851   -2.6563   19.7172 H   0  0  0  0  0  0  0  0  0  0  0  0
  1  2  1  0
  2  3  1  0
  3  4  1  0
  4  5  2  0
  5  6  1  0
  6  7  2  0
  7  8  1  0
  8  9  2  0
  3 10  1  0
 10 11  2  0
 11 12  1  0
 12 13  2  0
 13 14  1  0
 14 15  2  0
  3 16  1  0
 16 17  1  0
 17 18  1  0
 18 19  1  0
 18 20  1  0
  9  4  1  0
 15 10  1  0
 20 16  1  0
  1 21  1  0
  2 22  1  0
  2 23  1  0
  5 24  1  0
  6 25  1  0
  7 26  1  0
  8 27  1  0
  9 28  1  0
 11 29  1  0
 12 30  1  0
 13 31  1  0
 14 32  1  0
 15 33  1  0
 17 34  1  0
 17 35  1  0
 18 36  1  0
 19 37  1  0
 20 38  1  0
 20 39  1  0
M  END
>  <Energy>  (443) 
149.54031743188764

>  <compound_id>  (443) 
1759

>  <target_id>  (443) 
1

>  <reference_id>  (443) 
191

>  <inspiration_ids>  (443) 
[20, 191]

>  <energy_score>  (443) 
-30.093844929283932

>  <distance_score>  (443) 
1.479358331290894

>  <path>  (443) 
/opt/xchem-fragalysis-2/maxwin/BulkDock/SCRATCH/505732/C1759-P191/C1759-P191.minimised.mol

>  <scratch_subdir>  (443) 
/opt/xchem-fragalysis-2/maxwin/BulkDock/SCRATCH/505732/C1759-P191

>  <fragmenstein_runtime>  (443) 
16.712543487548828

>  <fragmenstein_outcome>  (443) 
too moved

>  <fragmenstein_mode>  (443) 
expansion

>  <fragmenstein_error>  (443) 


$$$$
C614-P21
     RDKit          3D

 51 54  0  0  0  0  0  0  0  0999 V2000
  -10.0770  -30.4598   15.0126 O   0  0  0  0  0  0  0  0  0  0  0  0
   -9.6183  -30.2485   13.9538 C   0  0  0  0  0  0  0  0  0  0  0  0
   -9.6781  -28.9659   13.0618 N   0  0  0  0  0  0  0  0  0  0  0  0
  -10.2137  -27.7009   13.3252 C   0  0  0  0  0  0  0  0  0  0  0  0
  -11.2351  -27.5547   14.2759 C   0  0  0  0  0  0  0  0  0  0  0  0
  -11.9839  -26.3780   14.3392 C   0  0  0  0  0  0  0  0  0  0  0  0
  -11.6873  -25.3267   13.4786 C   0  0  0  0  0  0  0  0  0  0  0  0
  -10.5997  -25.4231   12.6033 C   0  0  0  0  0  0  0  0  0  0  0  0
   -9.8296  -26.6069   12.5087 C   0  0  0  0  0  0  0  0  0  0  0  0
   -8.7330  -26.7043   11.4084 C   0  0  0  0  0  0  0  0  0  0  0  0
   -7.2252  -26.7888   11.8421 C   0  0  0  0  0  0  0  0  0  0  0  0
   -6.6702  -27.7060   12.7664 C   0  0  0  0  0  0  0  0  0  0  0  0
   -5.2804  -27.7683   13.0298 C   0  0  0  0  0  0  0  0  0  0  0  0
   -4.3970  -26.9254   12.3665 C   0  0  0  0  0  0  0  0  0  0  0  0
   -4.9054  -26.0200   11.4447 C   0  0  0  0  0  0  0  0  0  0  0  0
   -6.2881  -25.9563   11.1885 C   0  0  0  0  0  0  0  0  0  0  0  0
   -9.0254  -27.8681   10.5285 N   0  0  0  0  0  0  0  0  0  0  0  0
  -10.2785  -27.6604    9.7329 C   0  0  0  0  0  0  0  0  0  0  0  0
   -9.5589  -28.4118    8.5806 C   0  0  0  0  0  0  0  0  0  0  0  0
   -9.6702  -29.8570    8.6002 O   0  0  0  0  0  0  0  0  0  0  0  0
   -8.2817  -27.8146    9.2314 C   0  0  0  0  0  0  0  0  0  0  0  0
   -8.7152  -31.2446   13.1845 C   0  0  0  0  0  0  0  0  0  0  0  0
   -9.1251  -32.6823   13.5217 C   0  0  0  0  0  0  0  0  0  0  0  0
   -8.2738  -33.6255   12.8507 O   0  0  0  0  0  0  0  0  0  0  0  0
   -8.3088  -33.4084   11.4333 C   0  0  0  0  0  0  0  0  0  0  0  0
   -7.8808  -31.9792   11.1067 C   0  0  0  0  0  0  0  0  0  0  0  0
   -8.7454  -31.0344   11.7603 O   0  0  0  0  0  0  0  0  0  0  0  0
   -9.0957  -29.0997   12.2297 H   0  0  0  0  0  0  0  0  0  0  0  0
  -11.5238  -28.3897   14.9094 H   0  0  0  0  0  0  0  0  0  0  0  0
  -12.8155  -26.3010   15.0344 H   0  0  0  0  0  0  0  0  0  0  0  0
  -12.2890  -24.4217   13.4919 H   0  0  0  0  0  0  0  0  0  0  0  0
  -10.3766  -24.5735   11.9626 H   0  0  0  0  0  0  0  0  0  0  0  0
   -8.8194  -25.7803   10.8174 H   0  0  0  0  0  0  0  0  0  0  0  0
   -7.3043  -28.3790   13.3283 H   0  0  0  0  0  0  0  0  0  0  0  0
   -4.9045  -28.4798   13.7609 H   0  0  0  0  0  0  0  0  0  0  0  0
   -3.3312  -26.9649   12.5718 H   0  0  0  0  0  0  0  0  0  0  0  0
   -4.2306  -25.3485   10.9198 H   0  0  0  0  0  0  0  0  0  0  0  0
   -6.6285  -25.2351   10.4451 H   0  0  0  0  0  0  0  0  0  0  0  0
  -10.5349  -26.6212    9.4898 H   0  0  0  0  0  0  0  0  0  0  0  0
  -11.1619  -28.1625   10.1383 H   0  0  0  0  0  0  0  0  0  0  0  0
   -9.7803  -28.0338    7.5781 H   0  0  0  0  0  0  0  0  0  0  0  0
   -9.5018  -30.0762    9.5381 H   0  0  0  0  0  0  0  0  0  0  0  0
   -8.0274  -26.8161    8.8540 H   0  0  0  0  0  0  0  0  0  0  0  0
   -7.3944  -28.4532    9.1909 H   0  0  0  0  0  0  0  0  0  0  0  0
   -7.6879  -31.0601   13.5256 H   0  0  0  0  0  0  0  0  0  0  0  0
   -9.0458  -32.8729   14.5971 H   0  0  0  0  0  0  0  0  0  0  0  0
  -10.1625  -32.8781   13.2237 H   0  0  0  0  0  0  0  0  0  0  0  0
   -9.3261  -33.6047   11.0758 H   0  0  0  0  0  0  0  0  0  0  0  0
   -7.6320  -34.1277   10.9629 H   0  0  0  0  0  0  0  0  0  0  0  0
   -7.9361  -31.8016   10.0291 H   0  0  0  0  0  0  0  0  0  0  0  0
   -6.8514  -31.7916   11.4334 H   0  0  0  0  0  0  0  0  0  0  0  0
  1  2  2  0
  2  3  1  0
  3  4  1  0
  4  5  2  0
  5  6  1  0
  6  7  2  0
  7  8  1  0
  8  9  2  0
  9 10  1  0
 10 11  1  0
 11 12  2  0
 12 13  1  0
 13 14  2  0
 14 15  1  0
 15 16  2  0
 10 17  1  0
 17 18  1  0
 18 19  1  0
 19 20  1  0
 19 21  1  0
  2 22  1  0
 22 23  1  0
 23 24  1  0
 24 25  1  0
 25 26  1  0
 26 27  1  0
  9  4  1  0
 16 11  1  0
 21 17  1  0
 27 22  1  0
  3 28  1  0
  5 29  1  0
  6 30  1  0
  7 31  1  0
  8 32  1  0
 10 33  1  0
 12 34  1  0
 13 35  1  0
 14 36  1  0
 15 37  1  0
 16 38  1  0
 18 39  1  0
 18 40  1  0
 19 41  1  0
 20 42  1  0
 21 43  1  0
 21 44  1  0
 22 45  1  0
 23 46  1  0
 23 47  1  0
 25 48  1  0
 25 49  1  0
 26 50  1  0
 26 51  1  0
M  END
>  <Energy>  (444) 
170.40873784818544

>  <compound_id>  (444) 
614

>  <target_id>  (444) 
1

>  <reference_id>  (444) 
21

>  <inspiration_ids>  (444) 
[21, 77]

>  <energy_score>  (444) 
-88.62022177040473

>  <distance_score>  (444) 
2.4707573132626615

>  <path>  (444) 
/opt/xchem-fragalysis-2/maxwin/BulkDock/SCRATCH/505732/C614-P21/C614-P21.minimised.mol

>  <scratch_subdir>  (444) 
/opt/xchem-fragalysis-2/maxwin/BulkDock/SCRATCH/505732/C614-P21

>  <fragmenstein_runtime>  (444) 
9.169108390808105

>  <fragmenstein_outcome>  (444) 
too moved

>  <fragmenstein_mode>  (444) 
expansion

>  <fragmenstein_error>  (444) 


$$$$
C614-P77
     RDKit          3D

 51 54  0  0  0  0  0  0  0  0999 V2000
  -10.2594  -30.2497   15.2326 O   0  0  0  0  0  0  0  0  0  0  0  0
   -9.6893  -30.0827   14.2208 C   0  0  0  0  0  0  0  0  0  0  0  0
   -9.5596  -28.8018   13.3290 N   0  0  0  0  0  0  0  0  0  0  0  0
  -10.1609  -27.5477   13.4514 C   0  0  0  0  0  0  0  0  0  0  0  0
  -11.2084  -27.3594   14.3682 C   0  0  0  0  0  0  0  0  0  0  0  0
  -11.9825  -26.1991   14.3439 C   0  0  0  0  0  0  0  0  0  0  0  0
  -11.6835  -25.1946   13.4326 C   0  0  0  0  0  0  0  0  0  0  0  0
  -10.5837  -25.3328   12.5773 C   0  0  0  0  0  0  0  0  0  0  0  0
   -9.7889  -26.5081   12.5647 C   0  0  0  0  0  0  0  0  0  0  0  0
   -8.6854  -26.6478   11.4728 C   0  0  0  0  0  0  0  0  0  0  0  0
   -7.1716  -26.7174   11.8966 C   0  0  0  0  0  0  0  0  0  0  0  0
   -6.5706  -27.7115   12.7049 C   0  0  0  0  0  0  0  0  0  0  0  0
   -5.1821  -27.7355   12.9788 C   0  0  0  0  0  0  0  0  0  0  0  0
   -4.3392  -26.7780   12.4336 C   0  0  0  0  0  0  0  0  0  0  0  0
   -4.8899  -25.7969   11.6219 C   0  0  0  0  0  0  0  0  0  0  0  0
   -6.2724  -25.7713   11.3579 C   0  0  0  0  0  0  0  0  0  0  0  0
   -8.9977  -27.8053   10.5858 N   0  0  0  0  0  0  0  0  0  0  0  0
   -8.2290  -27.7469    9.3106 C   0  0  0  0  0  0  0  0  0  0  0  0
   -9.5197  -28.1705    8.5701 C   0  0  0  0  0  0  0  0  0  0  0  0
   -9.7849  -27.5605    7.2889 O   0  0  0  0  0  0  0  0  0  0  0  0
  -10.2409  -27.5712    9.8003 C   0  0  0  0  0  0  0  0  0  0  0  0
   -8.7911  -31.1499   13.5384 C   0  0  0  0  0  0  0  0  0  0  0  0
   -9.3108  -32.5645   13.8218 C   0  0  0  0  0  0  0  0  0  0  0  0
  -10.5072  -32.8952   13.1009 O   0  0  0  0  0  0  0  0  0  0  0  0
  -10.6326  -32.1962   11.8565 C   0  0  0  0  0  0  0  0  0  0  0  0
   -9.2775  -31.7997   11.2812 C   0  0  0  0  0  0  0  0  0  0  0  0
   -8.5812  -30.8908   12.1431 O   0  0  0  0  0  0  0  0  0  0  0  0
   -9.0545  -29.0332   12.4677 H   0  0  0  0  0  0  0  0  0  0  0  0
  -11.4893  -28.1500   15.0590 H   0  0  0  0  0  0  0  0  0  0  0  0
  -12.8267  -26.0963   15.0203 H   0  0  0  0  0  0  0  0  0  0  0  0
  -12.2907  -24.2941   13.3919 H   0  0  0  0  0  0  0  0  0  0  0  0
  -10.3667  -24.5192   11.8890 H   0  0  0  0  0  0  0  0  0  0  0  0
   -8.7631  -25.7294   10.8712 H   0  0  0  0  0  0  0  0  0  0  0  0
   -7.1609  -28.4989   13.1517 H   0  0  0  0  0  0  0  0  0  0  0  0
   -4.7754  -28.5161   13.6167 H   0  0  0  0  0  0  0  0  0  0  0  0
   -3.2740  -26.7860   12.6455 H   0  0  0  0  0  0  0  0  0  0  0  0
   -4.2485  -25.0293   11.1974 H   0  0  0  0  0  0  0  0  0  0  0  0
   -6.6371  -24.9867   10.6974 H   0  0  0  0  0  0  0  0  0  0  0  0
   -7.8601  -26.7593    9.0064 H   0  0  0  0  0  0  0  0  0  0  0  0
   -7.4065  -28.4659    9.2477 H   0  0  0  0  0  0  0  0  0  0  0  0
   -9.6337  -29.2599    8.5002 H   0  0  0  0  0  0  0  0  0  0  0  0
   -9.5972  -26.6112    7.4008 H   0  0  0  0  0  0  0  0  0  0  0  0
  -11.1068  -28.1430   10.1480 H   0  0  0  0  0  0  0  0  0  0  0  0
  -10.5418  -26.5248    9.6622 H   0  0  0  0  0  0  0  0  0  0  0  0
   -7.8119  -31.0379   14.0204 H   0  0  0  0  0  0  0  0  0  0  0  0
   -9.5103  -32.7210   14.8870 H   0  0  0  0  0  0  0  0  0  0  0  0
   -8.5527  -33.2988   13.5245 H   0  0  0  0  0  0  0  0  0  0  0  0
  -11.2474  -31.3079   12.0383 H   0  0  0  0  0  0  0  0  0  0  0  0
  -11.1740  -32.8455   11.1621 H   0  0  0  0  0  0  0  0  0  0  0  0
   -9.3986  -31.3096   10.3107 H   0  0  0  0  0  0  0  0  0  0  0  0
   -8.6412  -32.6803   11.1393 H   0  0  0  0  0  0  0  0  0  0  0  0
  1  2  2  0
  2  3  1  0
  3  4  1  0
  4  5  2  0
  5  6  1  0
  6  7  2  0
  7  8  1  0
  8  9  2  0
  9 10  1  0
 10 11  1  0
 11 12  2  0
 12 13  1  0
 13 14  2  0
 14 15  1  0
 15 16  2  0
 10 17  1  0
 17 18  1  0
 18 19  1  0
 19 20  1  0
 19 21  1  0
  2 22  1  0
 22 23  1  0
 23 24  1  0
 24 25  1  0
 25 26  1  0
 26 27  1  0
  9  4  1  0
 16 11  1  0
 21 17  1  0
 27 22  1  0
  3 28  1  0
  5 29  1  0
  6 30  1  0
  7 31  1  0
  8 32  1  0
 10 33  1  0
 12 34  1  0
 13 35  1  0
 14 36  1  0
 15 37  1  0
 16 38  1  0
 18 39  1  0
 18 40  1  0
 19 41  1  0
 20 42  1  0
 21 43  1  0
 21 44  1  0
 22 45  1  0
 23 46  1  0
 23 47  1  0
 25 48  1  0
 25 49  1  0
 26 50  1  0
 26 51  1  0
M  END
>  <Energy>  (445) 
180.40560920629977

>  <compound_id>  (445) 
614

>  <target_id>  (445) 
1

>  <reference_id>  (445) 
77

>  <inspiration_ids>  (445) 
[21, 77]

>  <energy_score>  (445) 
-78.62335041229287

>  <distance_score>  (445) 
2.4242141008794156

>  <path>  (445) 
/opt/xchem-fragalysis-2/maxwin/BulkDock/SCRATCH/505732/C614-P77/C614-P77.minimised.mol

>  <scratch_subdir>  (445) 
/opt/xchem-fragalysis-2/maxwin/BulkDock/SCRATCH/505732/C614-P77

>  <fragmenstein_runtime>  (445) 
7.136574745178223

>  <fragmenstein_outcome>  (445) 
too moved

>  <fragmenstein_mode>  (445) 
expansion

>  <fragmenstein_error>  (445) 


$$$$
C1771-P23
     RDKit          3D

 47 50  0  0  0  0  0  0  0  0999 V2000
   17.4669   -5.7658   18.0707 C   0  0  0  0  0  0  0  0  0  0  0  0
   17.4054   -4.4654   17.3058 C   0  0  0  0  0  0  0  0  0  0  0  0
   16.6651   -3.4607   18.0660 N   0  0  0  0  0  0  0  0  0  0  0  0
   16.8637   -2.1801   17.4036 C   0  0  0  0  0  0  0  0  0  0  0  0
   16.2750   -1.0016   18.1241 C   0  0  0  0  0  0  0  0  0  0  0  0
   16.6841   -0.6369   19.4161 C   0  0  0  0  0  0  0  0  0  0  0  0
   16.5458    0.6828   19.8866 C   0  0  0  0  0  0  0  0  0  0  0  0
   16.1344    1.6869   19.0216 C   0  0  0  0  0  0  0  0  0  0  0  0
   15.7421    1.2913   17.7653 C   0  0  0  0  0  0  0  0  0  0  0  0
   15.5885   -0.0541   17.4081 C   0  0  0  0  0  0  0  0  0  0  0  0
   14.8075   -0.0610   16.1159 C   0  0  0  0  0  0  0  0  0  0  0  0
   14.0741   -1.2710   15.5481 C   0  0  0  0  0  0  0  0  0  0  0  0
   13.7657   -2.3648   16.4011 C   0  0  0  0  0  0  0  0  0  0  0  0
   12.6957   -3.2331   16.1674 C   0  0  0  0  0  0  0  0  0  0  0  0
   11.8896   -3.0297   15.0656 C   0  0  0  0  0  0  0  0  0  0  0  0
   12.2186   -2.0265   14.1684 C   0  0  0  0  0  0  0  0  0  0  0  0
   13.2976   -1.1645   14.3919 C   0  0  0  0  0  0  0  0  0  0  0  0
   15.3581    1.1947   15.4211 C   0  0  0  0  0  0  0  0  0  0  0  0
   16.6266    1.0446   14.5423 C   0  0  0  0  0  0  0  0  0  0  0  0
   15.7465    1.3340   13.3064 C   0  0  0  0  0  0  0  0  0  0  0  0
   16.3241    2.1979   12.3119 O   0  0  0  0  0  0  0  0  0  0  0  0
   14.7141    1.9876   14.2557 C   0  0  0  0  0  0  0  0  0  0  0  0
   15.6173    2.1004   16.5919 N   0  0  0  0  0  0  0  0  0  0  0  0
   16.4666   -6.1243   18.3312 H   0  0  0  0  0  0  0  0  0  0  0  0
   18.0356   -5.6523   19.0001 H   0  0  0  0  0  0  0  0  0  0  0  0
   17.9570   -6.5388   17.4701 H   0  0  0  0  0  0  0  0  0  0  0  0
   16.9119   -4.6394   16.3423 H   0  0  0  0  0  0  0  0  0  0  0  0
   18.4344   -4.1425   17.1053 H   0  0  0  0  0  0  0  0  0  0  0  0
   17.0454   -3.4077   19.0090 H   0  0  0  0  0  0  0  0  0  0  0  0
   16.5005   -2.2376   16.3727 H   0  0  0  0  0  0  0  0  0  0  0  0
   17.9392   -1.9661   17.3151 H   0  0  0  0  0  0  0  0  0  0  0  0
   17.2001   -1.3558   20.0492 H   0  0  0  0  0  0  0  0  0  0  0  0
   16.8953    0.9354   20.8847 H   0  0  0  0  0  0  0  0  0  0  0  0
   16.2070    2.7319   19.2957 H   0  0  0  0  0  0  0  0  0  0  0  0
   13.8824    0.3898   16.4674 H   0  0  0  0  0  0  0  0  0  0  0  0
   14.2628   -2.4913   17.3585 H   0  0  0  0  0  0  0  0  0  0  0  0
   12.4746   -4.0284   16.8747 H   0  0  0  0  0  0  0  0  0  0  0  0
   11.0233   -3.6581   14.8862 H   0  0  0  0  0  0  0  0  0  0  0  0
   11.6018   -1.8770   13.2945 H   0  0  0  0  0  0  0  0  0  0  0  0
   13.4211   -0.3493   13.6912 H   0  0  0  0  0  0  0  0  0  0  0  0
   17.0935    0.0547   14.5459 H   0  0  0  0  0  0  0  0  0  0  0  0
   17.4059    1.7963   14.7159 H   0  0  0  0  0  0  0  0  0  0  0  0
   15.3817    0.4146   12.8346 H   0  0  0  0  0  0  0  0  0  0  0  0
   15.6011    2.3883   11.6904 H   0  0  0  0  0  0  0  0  0  0  0  0
   14.8241    3.0777   14.3236 H   0  0  0  0  0  0  0  0  0  0  0  0
   13.6635    1.7767   14.0456 H   0  0  0  0  0  0  0  0  0  0  0  0
   14.9138    2.8218   16.7385 H   0  0  0  0  0  0  0  0  0  0  0  0
  1  2  1  0
  2  3  1  0
  3  4  1  0
  4  5  1  0
  5  6  2  0
  6  7  1  0
  7  8  2  0
  8  9  1  0
  9 10  2  0
 10 11  1  0
 11 12  1  0
 12 13  2  0
 13 14  1  0
 14 15  2  0
 15 16  1  0
 16 17  2  0
 11 18  1  0
 18 19  1  0
 19 20  1  0
 20 21  1  0
 20 22  1  0
 18 23  1  0
 10  5  1  0
 17 12  1  0
 22 18  1  0
 23  9  1  0
  1 24  1  0
  1 25  1  0
  1 26  1  0
  2 27  1  0
  2 28  1  0
  3 29  1  0
  4 30  1  0
  4 31  1  0
  6 32  1  0
  7 33  1  0
  8 34  1  0
 11 35  1  0
 13 36  1  0
 14 37  1  0
 15 38  1  0
 16 39  1  0
 17 40  1  0
 19 41  1  0
 19 42  1  0
 20 43  1  0
 21 44  1  0
 22 45  1  0
 22 46  1  0
 23 47  1  0
M  END
>  <Energy>  (446) 
127.81862516395445

>  <compound_id>  (446) 
1771

>  <target_id>  (446) 
1

>  <reference_id>  (446) 
23

>  <inspiration_ids>  (446) 
[23, 20]

>  <energy_score>  (446) 
15.686444523817045

>  <distance_score>  (446) 
1.8825822684435967

>  <path>  (446) 
/opt/xchem-fragalysis-2/maxwin/BulkDock/SCRATCH/505732/C1771-P23/C1771-P23.minimised.mol

>  <scratch_subdir>  (446) 
/opt/xchem-fragalysis-2/maxwin/BulkDock/SCRATCH/505732/C1771-P23

>  <fragmenstein_runtime>  (446) 
26.566460371017456

>  <fragmenstein_outcome>  (446) 
too moved

>  <fragmenstein_mode>  (446) 
expansion

>  <fragmenstein_error>  (446) 


$$$$
C1771-P20
     RDKit          3D

 47 50  0  0  0  0  0  0  0  0999 V2000
   17.8830   -4.9115   16.8646 C   0  0  0  0  0  0  0  0  0  0  0  0
   17.3805   -4.2376   18.1323 C   0  0  0  0  0  0  0  0  0  0  0  0
   16.1703   -3.4549   17.9007 N   0  0  0  0  0  0  0  0  0  0  0  0
   16.4336   -2.2090   17.1782 C   0  0  0  0  0  0  0  0  0  0  0  0
   16.2348   -0.9927   18.0416 C   0  0  0  0  0  0  0  0  0  0  0  0
   17.1614   -0.7004   19.0605 C   0  0  0  0  0  0  0  0  0  0  0  0
   17.0936    0.4717   19.8384 C   0  0  0  0  0  0  0  0  0  0  0  0
   16.1411    1.4390   19.5727 C   0  0  0  0  0  0  0  0  0  0  0  0
   15.2681    1.1708   18.5483 C   0  0  0  0  0  0  0  0  0  0  0  0
   15.2302   -0.0676   17.8561 C   0  0  0  0  0  0  0  0  0  0  0  0
   13.9457   -0.0407   17.0691 C   0  0  0  0  0  0  0  0  0  0  0  0
   13.4004   -1.1184   16.1677 C   0  0  0  0  0  0  0  0  0  0  0  0
   13.1680   -2.3941   16.7353 C   0  0  0  0  0  0  0  0  0  0  0  0
   12.3690   -3.3489   16.1153 C   0  0  0  0  0  0  0  0  0  0  0  0
   11.7895   -3.0491   14.8971 C   0  0  0  0  0  0  0  0  0  0  0  0
   12.0756   -1.8409   14.2820 C   0  0  0  0  0  0  0  0  0  0  0  0
   12.8747   -0.8828   14.9011 C   0  0  0  0  0  0  0  0  0  0  0  0
   13.8021    1.4656   16.7489 C   0  0  0  0  0  0  0  0  0  0  0  0
   14.5218    2.0661   15.5056 C   0  0  0  0  0  0  0  0  0  0  0  0
   13.3355    3.0348   15.3235 C   0  0  0  0  0  0  0  0  0  0  0  0
   12.8181    3.1449   13.9842 O   0  0  0  0  0  0  0  0  0  0  0  0
   12.5021    2.1685   16.2916 C   0  0  0  0  0  0  0  0  0  0  0  0
   14.3653    2.1042   17.9625 N   0  0  0  0  0  0  0  0  0  0  0  0
   17.1033   -5.5293   16.4083 H   0  0  0  0  0  0  0  0  0  0  0  0
   18.7300   -5.5645   17.0998 H   0  0  0  0  0  0  0  0  0  0  0  0
   18.2218   -4.1864   16.1185 H   0  0  0  0  0  0  0  0  0  0  0  0
   18.1743   -3.6358   18.5874 H   0  0  0  0  0  0  0  0  0  0  0  0
   17.1357   -5.0246   18.8553 H   0  0  0  0  0  0  0  0  0  0  0  0
   15.7493   -3.2244   18.8009 H   0  0  0  0  0  0  0  0  0  0  0  0
   15.8111   -2.1724   16.2827 H   0  0  0  0  0  0  0  0  0  0  0  0
   17.4587   -2.1617   16.7869 H   0  0  0  0  0  0  0  0  0  0  0  0
   17.9763   -1.3945   19.2609 H   0  0  0  0  0  0  0  0  0  0  0  0
   17.8344    0.6408   20.6164 H   0  0  0  0  0  0  0  0  0  0  0  0
   16.1334    2.3863   20.0972 H   0  0  0  0  0  0  0  0  0  0  0  0
   13.2482   -0.1836   17.8962 H   0  0  0  0  0  0  0  0  0  0  0  0
   13.5614   -2.6328   17.7214 H   0  0  0  0  0  0  0  0  0  0  0  0
   12.1831   -4.3063   16.5937 H   0  0  0  0  0  0  0  0  0  0  0  0
   11.1305   -3.7556   14.4071 H   0  0  0  0  0  0  0  0  0  0  0  0
   11.6435   -1.6175   13.3166 H   0  0  0  0  0  0  0  0  0  0  0  0
   12.9964    0.0632   14.3859 H   0  0  0  0  0  0  0  0  0  0  0  0
   14.6759    1.3784   14.6689 H   0  0  0  0  0  0  0  0  0  0  0  0
   15.4824    2.5595   15.6936 H   0  0  0  0  0  0  0  0  0  0  0  0
   13.5414    4.0312   15.7348 H   0  0  0  0  0  0  0  0  0  0  0  0
   13.4987    3.6435   13.4993 H   0  0  0  0  0  0  0  0  0  0  0  0
   11.7717    1.5230   15.7943 H   0  0  0  0  0  0  0  0  0  0  0  0
   11.9676    2.7384   17.0575 H   0  0  0  0  0  0  0  0  0  0  0  0
   13.6688    2.3884   18.6536 H   0  0  0  0  0  0  0  0  0  0  0  0
  1  2  1  0
  2  3  1  0
  3  4  1  0
  4  5  1  0
  5  6  2  0
  6  7  1  0
  7  8  2  0
  8  9  1  0
  9 10  2  0
 10 11  1  0
 11 12  1  0
 12 13  2  0
 13 14  1  0
 14 15  2  0
 15 16  1  0
 16 17  2  0
 11 18  1  0
 18 19  1  0
 19 20  1  0
 20 21  1  0
 20 22  1  0
 18 23  1  0
 10  5  1  0
 17 12  1  0
 22 18  1  0
 23  9  1  0
  1 24  1  0
  1 25  1  0
  1 26  1  0
  2 27  1  0
  2 28  1  0
  3 29  1  0
  4 30  1  0
  4 31  1  0
  6 32  1  0
  7 33  1  0
  8 34  1  0
 11 35  1  0
 13 36  1  0
 14 37  1  0
 15 38  1  0
 16 39  1  0
 17 40  1  0
 19 41  1  0
 19 42  1  0
 20 43  1  0
 21 44  1  0
 22 45  1  0
 22 46  1  0
 23 47  1  0
M  END
>  <Energy>  (447) 
102.37619598022344

>  <compound_id>  (447) 
1771

>  <target_id>  (447) 
1

>  <reference_id>  (447) 
20

>  <inspiration_ids>  (447) 
[23, 20]

>  <energy_score>  (447) 
-9.75598465991456

>  <distance_score>  (447) 
1.4336335323684728

>  <path>  (447) 
/opt/xchem-fragalysis-2/maxwin/BulkDock/SCRATCH/505732/C1771-P20/C1771-P20.minimised.mol

>  <scratch_subdir>  (447) 
/opt/xchem-fragalysis-2/maxwin/BulkDock/SCRATCH/505732/C1771-P20

>  <fragmenstein_runtime>  (447) 
26.291414976119995

>  <fragmenstein_outcome>  (447) 
too moved

>  <fragmenstein_mode>  (447) 
expansion

>  <fragmenstein_error>  (447) 


$$$$
C1344-P23
     RDKit          3D

 52 55  0  0  0  0  0  0  0  0999 V2000
   14.2148   -6.0807   23.9413 C   0  0  0  0  0  0  0  0  0  0  0  0
   14.0766   -6.2584   22.4456 C   0  0  0  0  0  0  0  0  0  0  0  0
   13.3063   -6.9828   21.9530 O   0  0  0  0  0  0  0  0  0  0  0  0
   15.1382   -5.3329   21.8010 N   0  0  0  0  0  0  0  0  0  0  0  0
   15.4058   -5.0373   20.4127 C   0  0  0  0  0  0  0  0  0  0  0  0
   14.5038   -3.9320   19.8517 C   0  0  0  0  0  0  0  0  0  0  0  0
   14.8908   -2.5474   20.2713 C   0  0  0  0  0  0  0  0  0  0  0  0
   14.8161   -2.1274   21.5858 C   0  0  0  0  0  0  0  0  0  0  0  0
   15.0688   -0.7964   21.6332 N   0  0  0  0  0  0  0  0  0  0  0  0
   15.3515   -0.3252   20.3756 C   0  0  0  0  0  0  0  0  0  0  0  0
   15.6350    0.9936   20.0132 C   0  0  0  0  0  0  0  0  0  0  0  0
   15.9100    1.2444   18.6817 C   0  0  0  0  0  0  0  0  0  0  0  0
   15.9098    0.2038   17.7662 C   0  0  0  0  0  0  0  0  0  0  0  0
   16.2357    0.5164   16.5012 F   0  0  0  0  0  0  0  0  0  0  0  0
   15.6122   -1.1456   18.0983 C   0  0  0  0  0  0  0  0  0  0  0  0
   15.6926   -2.1421   16.9190 C   0  0  0  0  0  0  0  0  0  0  0  0
   14.3541   -2.2122   16.1627 C   0  0  0  0  0  0  0  0  0  0  0  0
   14.1013   -1.2936   15.1253 C   0  0  0  0  0  0  0  0  0  0  0  0
   12.8888   -1.3007   14.4336 C   0  0  0  0  0  0  0  0  0  0  0  0
   11.9064   -2.2255   14.7663 C   0  0  0  0  0  0  0  0  0  0  0  0
   12.1353   -3.1484   15.7742 C   0  0  0  0  0  0  0  0  0  0  0  0
   13.3497   -3.1466   16.4574 C   0  0  0  0  0  0  0  0  0  0  0  0
   16.2366   -3.4708   17.3032 N   0  0  0  0  0  0  0  0  0  0  0  0
   17.6508   -3.3865   17.7268 C   0  0  0  0  0  0  0  0  0  0  0  0
   18.1094   -3.8850   16.3460 C   0  0  0  0  0  0  0  0  0  0  0  0
   19.0723   -4.9580   16.3214 O   0  0  0  0  0  0  0  0  0  0  0  0
   16.6362   -4.2630   16.1173 C   0  0  0  0  0  0  0  0  0  0  0  0
   15.3005   -1.4058   19.4746 C   0  0  0  0  0  0  0  0  0  0  0  0
   15.1923   -6.4436   24.2698 H   0  0  0  0  0  0  0  0  0  0  0  0
   14.0941   -5.0270   24.2075 H   0  0  0  0  0  0  0  0  0  0  0  0
   13.4354   -6.6570   24.4484 H   0  0  0  0  0  0  0  0  0  0  0  0
   15.6964   -4.9004   22.5276 H   0  0  0  0  0  0  0  0  0  0  0  0
   16.4656   -4.7811   20.3274 H   0  0  0  0  0  0  0  0  0  0  0  0
   15.2220   -5.9623   19.8566 H   0  0  0  0  0  0  0  0  0  0  0  0
   14.5219   -4.0230   18.7813 H   0  0  0  0  0  0  0  0  0  0  0  0
   13.4632   -4.1135   20.1518 H   0  0  0  0  0  0  0  0  0  0  0  0
   14.5057   -2.6538   22.4783 H   0  0  0  0  0  0  0  0  0  0  0  0
   15.0020   -0.2240   22.4630 H   0  0  0  0  0  0  0  0  0  0  0  0
   15.6489    1.7943   20.7460 H   0  0  0  0  0  0  0  0  0  0  0  0
   16.1467    2.2497   18.3466 H   0  0  0  0  0  0  0  0  0  0  0  0
   16.4141   -1.7201   16.2026 H   0  0  0  0  0  0  0  0  0  0  0  0
   14.8503   -0.5558   14.8452 H   0  0  0  0  0  0  0  0  0  0  0  0
   12.7070   -0.5790   13.6413 H   0  0  0  0  0  0  0  0  0  0  0  0
   10.9669   -2.2398   14.2302 H   0  0  0  0  0  0  0  0  0  0  0  0
   11.3867   -3.8996   16.0078 H   0  0  0  0  0  0  0  0  0  0  0  0
   13.4926   -3.9244   17.1927 H   0  0  0  0  0  0  0  0  0  0  0  0
   17.8955   -4.0777   18.5417 H   0  0  0  0  0  0  0  0  0  0  0  0
   18.0371   -2.4003   18.0051 H   0  0  0  0  0  0  0  0  0  0  0  0
   18.4383   -3.0685   15.6903 H   0  0  0  0  0  0  0  0  0  0  0  0
   19.8970   -4.5614   16.6491 H   0  0  0  0  0  0  0  0  0  0  0  0
   16.2390   -3.9462   15.1488 H   0  0  0  0  0  0  0  0  0  0  0  0
   16.4315   -5.3336   16.2323 H   0  0  0  0  0  0  0  0  0  0  0  0
  1  2  1  0
  2  3  2  0
  2  4  1  0
  4  5  1  0
  5  6  1  0
  6  7  1  0
  7  8  2  0
  8  9  1  0
  9 10  1  0
 10 11  2  0
 11 12  1  0
 12 13  2  0
 13 14  1  0
 13 15  1  0
 15 16  1  0
 16 17  1  0
 17 18  2  0
 18 19  1  0
 19 20  2  0
 20 21  1  0
 21 22  2  0
 16 23  1  0
 23 24  1  0
 24 25  1  0
 25 26  1  0
 25 27  1  0
 15 28  2  0
 28  7  1  0
 28 10  1  0
 22 17  1  0
 27 23  1  0
  1 29  1  0
  1 30  1  0
  1 31  1  0
  4 32  1  0
  5 33  1  0
  5 34  1  0
  6 35  1  0
  6 36  1  0
  8 37  1  0
  9 38  1  0
 11 39  1  0
 12 40  1  0
 16 41  1  0
 18 42  1  0
 19 43  1  0
 20 44  1  0
 21 45  1  0
 22 46  1  0
 24 47  1  0
 24 48  1  0
 25 49  1  0
 26 50  1  0
 27 51  1  0
 27 52  1  0
M  END
>  <Energy>  (448) 
88.369331775558578

>  <compound_id>  (448) 
1344

>  <target_id>  (448) 
1

>  <reference_id>  (448) 
23

>  <inspiration_ids>  (448) 
[23, 27]

>  <energy_score>  (448) 
-101.78662885691497

>  <distance_score>  (448) 
1.2759433196877041

>  <path>  (448) 
/opt/xchem-fragalysis-2/maxwin/BulkDock/SCRATCH/505732/C1344-P23/C1344-P23.minimised.mol

>  <scratch_subdir>  (448) 
/opt/xchem-fragalysis-2/maxwin/BulkDock/SCRATCH/505732/C1344-P23

>  <fragmenstein_runtime>  (448) 
16.430088758468628

>  <fragmenstein_outcome>  (448) 
too moved

>  <fragmenstein_mode>  (448) 
expansion

>  <fragmenstein_error>  (448) 


$$$$
C1344-P27
     RDKit          3D

 52 55  0  0  0  0  0  0  0  0999 V2000
   14.3866   -6.3599   23.7420 C   0  0  0  0  0  0  0  0  0  0  0  0
   14.1094   -6.3773   22.2551 C   0  0  0  0  0  0  0  0  0  0  0  0
   13.3295   -7.0860   21.7545 O   0  0  0  0  0  0  0  0  0  0  0  0
   15.0181   -5.2873   21.6350 N   0  0  0  0  0  0  0  0  0  0  0  0
   15.2230   -4.9099   20.2545 C   0  0  0  0  0  0  0  0  0  0  0  0
   14.2789   -3.7929   19.8039 C   0  0  0  0  0  0  0  0  0  0  0  0
   14.6927   -2.4330   20.2644 C   0  0  0  0  0  0  0  0  0  0  0  0
   14.5874   -2.0332   21.5822 C   0  0  0  0  0  0  0  0  0  0  0  0
   14.8991   -0.7157   21.6601 N   0  0  0  0  0  0  0  0  0  0  0  0
   15.2655   -0.2439   20.4240 C   0  0  0  0  0  0  0  0  0  0  0  0
   15.6428    1.0592   20.0929 C   0  0  0  0  0  0  0  0  0  0  0  0
   15.9868    1.3093   18.7765 C   0  0  0  0  0  0  0  0  0  0  0  0
   15.9526    0.2849   17.8432 C   0  0  0  0  0  0  0  0  0  0  0  0
   16.3375    0.5946   16.5936 F   0  0  0  0  0  0  0  0  0  0  0  0
   15.5532   -1.0448   18.1418 C   0  0  0  0  0  0  0  0  0  0  0  0
   15.5752   -2.0271   16.9475 C   0  0  0  0  0  0  0  0  0  0  0  0
   14.1954   -2.0790   16.2596 C   0  0  0  0  0  0  0  0  0  0  0  0
   13.7905   -1.0018   15.4479 C   0  0  0  0  0  0  0  0  0  0  0  0
   12.5385   -0.9889   14.8285 C   0  0  0  0  0  0  0  0  0  0  0  0
   11.6585   -2.0467   15.0168 C   0  0  0  0  0  0  0  0  0  0  0  0
   12.0412   -3.1288   15.7939 C   0  0  0  0  0  0  0  0  0  0  0  0
   13.3021   -3.1525   16.3907 C   0  0  0  0  0  0  0  0  0  0  0  0
   16.1414   -3.3604   17.2998 N   0  0  0  0  0  0  0  0  0  0  0  0
   17.5576   -3.2655   17.7190 C   0  0  0  0  0  0  0  0  0  0  0  0
   18.0213   -3.7433   16.3340 C   0  0  0  0  0  0  0  0  0  0  0  0
   18.9790   -4.8221   16.2978 O   0  0  0  0  0  0  0  0  0  0  0  0
   16.5494   -4.1102   16.0885 C   0  0  0  0  0  0  0  0  0  0  0  0
   15.1855   -1.3045   19.5032 C   0  0  0  0  0  0  0  0  0  0  0  0
   14.1631   -5.3713   24.1523 H   0  0  0  0  0  0  0  0  0  0  0  0
   13.7483   -7.0966   24.2386 H   0  0  0  0  0  0  0  0  0  0  0  0
   15.4319   -6.6196   23.9299 H   0  0  0  0  0  0  0  0  0  0  0  0
   15.6367   -4.9169   22.3469 H   0  0  0  0  0  0  0  0  0  0  0  0
   15.0361   -5.8043   19.6535 H   0  0  0  0  0  0  0  0  0  0  0  0
   16.2736   -4.6285   20.1456 H   0  0  0  0  0  0  0  0  0  0  0  0
   14.2120   -3.8131   18.7313 H   0  0  0  0  0  0  0  0  0  0  0  0
   13.2641   -3.9979   20.1689 H   0  0  0  0  0  0  0  0  0  0  0  0
   14.2263   -2.5641   22.4533 H   0  0  0  0  0  0  0  0  0  0  0  0
   14.8278   -0.1518   22.4954 H   0  0  0  0  0  0  0  0  0  0  0  0
   15.6715    1.8497   20.8362 H   0  0  0  0  0  0  0  0  0  0  0  0
   16.2945    2.3035   18.4674 H   0  0  0  0  0  0  0  0  0  0  0  0
   16.2534   -1.6023   16.1919 H   0  0  0  0  0  0  0  0  0  0  0  0
   14.4530   -0.1547   15.2849 H   0  0  0  0  0  0  0  0  0  0  0  0
   12.2469   -0.1513   14.2002 H   0  0  0  0  0  0  0  0  0  0  0  0
   10.6845   -2.0383   14.5386 H   0  0  0  0  0  0  0  0  0  0  0  0
   11.3744   -3.9777   15.9109 H   0  0  0  0  0  0  0  0  0  0  0  0
   13.5790   -4.0576   16.9182 H   0  0  0  0  0  0  0  0  0  0  0  0
   17.8140   -3.9626   18.5251 H   0  0  0  0  0  0  0  0  0  0  0  0
   17.9373   -2.2795   18.0060 H   0  0  0  0  0  0  0  0  0  0  0  0
   18.3584   -2.9178   15.6941 H   0  0  0  0  0  0  0  0  0  0  0  0
   19.8052   -4.4335   16.6316 H   0  0  0  0  0  0  0  0  0  0  0  0
   16.1541   -3.7625   15.1290 H   0  0  0  0  0  0  0  0  0  0  0  0
   16.3498   -5.1833   16.1653 H   0  0  0  0  0  0  0  0  0  0  0  0
  1  2  1  0
  2  3  2  0
  2  4  1  0
  4  5  1  0
  5  6  1  0
  6  7  1  0
  7  8  2  0
  8  9  1  0
  9 10  1  0
 10 11  2  0
 11 12  1  0
 12 13  2  0
 13 14  1  0
 13 15  1  0
 15 16  1  0
 16 17  1  0
 17 18  2  0
 18 19  1  0
 19 20  2  0
 20 21  1  0
 21 22  2  0
 16 23  1  0
 23 24  1  0
 24 25  1  0
 25 26  1  0
 25 27  1  0
 15 28  2  0
 28  7  1  0
 28 10  1  0
 22 17  1  0
 27 23  1  0
  1 29  1  0
  1 30  1  0
  1 31  1  0
  4 32  1  0
  5 33  1  0
  5 34  1  0
  6 35  1  0
  6 36  1  0
  8 37  1  0
  9 38  1  0
 11 39  1  0
 12 40  1  0
 16 41  1  0
 18 42  1  0
 19 43  1  0
 20 44  1  0
 21 45  1  0
 22 46  1  0
 24 47  1  0
 24 48  1  0
 25 49  1  0
 26 50  1  0
 27 51  1  0
 27 52  1  0
M  END
>  <Energy>  (449) 
87.243181061791915

>  <compound_id>  (449) 
1344

>  <target_id>  (449) 
1

>  <reference_id>  (449) 
27

>  <inspiration_ids>  (449) 
[23, 27]

>  <energy_score>  (449) 
-102.91277957068039

>  <distance_score>  (449) 
1.2137492055244692

>  <path>  (449) 
/opt/xchem-fragalysis-2/maxwin/BulkDock/SCRATCH/505732/C1344-P27/C1344-P27.minimised.mol

>  <scratch_subdir>  (449) 
/opt/xchem-fragalysis-2/maxwin/BulkDock/SCRATCH/505732/C1344-P27

>  <fragmenstein_runtime>  (449) 
17.85626530647278

>  <fragmenstein_outcome>  (449) 
too moved

>  <fragmenstein_mode>  (449) 
expansion

>  <fragmenstein_error>  (449) 


$$$$
C1773-P23
     RDKit          3D

 42 43  0  0  0  0  0  0  0  0999 V2000
   18.1992   -1.7623   10.3209 C   0  0  0  0  0  0  0  0  0  0  0  0
   18.0048   -1.6872   11.7561 N   0  0  0  0  0  0  0  0  0  0  0  0
   16.7442   -1.0932   12.2331 C   0  0  0  0  0  0  0  0  0  0  0  0
   16.1216   -0.0272   11.2433 C   0  0  0  0  0  0  0  0  0  0  0  0
   14.9116    0.5888   11.6816 O   0  0  0  0  0  0  0  0  0  0  0  0
   15.7459   -2.0865   12.7256 N   0  0  0  0  0  0  0  0  0  0  0  0
   15.0324   -2.7013   11.6233 C   0  0  0  0  0  0  0  0  0  0  0  0
   14.9335   -1.6632   13.8019 C   0  0  0  0  0  0  0  0  0  0  0  0
   13.5506   -1.4845   13.6269 C   0  0  0  0  0  0  0  0  0  0  0  0
   12.9030   -0.4574   14.2738 C   0  0  0  0  0  0  0  0  0  0  0  0
   13.6284    0.2978   15.1728 C   0  0  0  0  0  0  0  0  0  0  0  0
   14.8323   -0.1724   15.6655 C   0  0  0  0  0  0  0  0  0  0  0  0
   15.4817   -1.2137   15.0134 C   0  0  0  0  0  0  0  0  0  0  0  0
   16.7624   -1.7409   15.6142 C   0  0  0  0  0  0  0  0  0  0  0  0
   16.5225   -2.6687   16.7427 N   0  0  0  0  0  0  0  0  0  0  0  0
   17.8068   -3.0058   17.4111 C   0  0  0  0  0  0  0  0  0  0  0  0
   17.9957   -4.1939   16.4428 C   0  0  0  0  0  0  0  0  0  0  0  0
   18.5052   -5.4221   16.9909 O   0  0  0  0  0  0  0  0  0  0  0  0
   16.4678   -4.0723   16.2388 C   0  0  0  0  0  0  0  0  0  0  0  0
   17.3935   -2.2950    9.8130 H   0  0  0  0  0  0  0  0  0  0  0  0
   19.1269   -2.3065   10.1154 H   0  0  0  0  0  0  0  0  0  0  0  0
   18.3161   -0.7692    9.8766 H   0  0  0  0  0  0  0  0  0  0  0  0
   18.0119   -2.6245   12.1588 H   0  0  0  0  0  0  0  0  0  0  0  0
   17.0650   -0.4985   13.0965 H   0  0  0  0  0  0  0  0  0  0  0  0
   16.8486    0.7784   11.0884 H   0  0  0  0  0  0  0  0  0  0  0  0
   15.9102   -0.4604   10.2607 H   0  0  0  0  0  0  0  0  0  0  0  0
   14.9179    0.5822   12.6558 H   0  0  0  0  0  0  0  0  0  0  0  0
   15.7425   -3.2132   10.9726 H   0  0  0  0  0  0  0  0  0  0  0  0
   14.3242   -3.4608   11.9460 H   0  0  0  0  0  0  0  0  0  0  0  0
   14.4899   -1.9747   11.0157 H   0  0  0  0  0  0  0  0  0  0  0  0
   13.0041   -1.9611   12.8278 H   0  0  0  0  0  0  0  0  0  0  0  0
   11.8981   -0.1727   13.9745 H   0  0  0  0  0  0  0  0  0  0  0  0
   13.2384    1.2359   15.5464 H   0  0  0  0  0  0  0  0  0  0  0  0
   15.2947    0.3167   16.5193 H   0  0  0  0  0  0  0  0  0  0  0  0
   17.3285   -0.8727   15.9805 H   0  0  0  0  0  0  0  0  0  0  0  0
   17.3952   -2.1765   14.8321 H   0  0  0  0  0  0  0  0  0  0  0  0
   17.6782   -3.3040   18.4594 H   0  0  0  0  0  0  0  0  0  0  0  0
   18.5900   -2.2409   17.3762 H   0  0  0  0  0  0  0  0  0  0  0  0
   18.5698   -3.9295   15.5456 H   0  0  0  0  0  0  0  0  0  0  0  0
   19.4258   -5.2262   17.2335 H   0  0  0  0  0  0  0  0  0  0  0  0
   16.1262   -4.2044   15.2105 H   0  0  0  0  0  0  0  0  0  0  0  0
   15.8767   -4.7359   16.8817 H   0  0  0  0  0  0  0  0  0  0  0  0
  1  2  1  0
  2  3  1  0
  3  4  1  0
  4  5  1  0
  3  6  1  0
  6  7  1  0
  6  8  1  0
  8  9  2  0
  9 10  1  0
 10 11  2  0
 11 12  1  0
 12 13  2  0
 13 14  1  0
 14 15  1  0
 15 16  1  0
 16 17  1  0
 17 18  1  0
 17 19  1  0
 13  8  1  0
 19 15  1  0
  1 20  1  0
  1 21  1  0
  1 22  1  0
  2 23  1  0
  3 24  1  0
  4 25  1  0
  4 26  1  0
  5 27  1  0
  7 28  1  0
  7 29  1  0
  7 30  1  0
  9 31  1  0
 10 32  1  0
 11 33  1  0
 12 34  1  0
 14 35  1  0
 14 36  1  0
 16 37  1  0
 16 38  1  0
 17 39  1  0
 18 40  1  0
 19 41  1  0
 19 42  1  0
M  END
>  <Energy>  (450) 
93.209270215071996

>  <compound_id>  (450) 
1773

>  <target_id>  (450) 
1

>  <reference_id>  (450) 
23

>  <inspiration_ids>  (450) 
[23, 31]

>  <energy_score>  (450) 
-29.345809604512098

>  <distance_score>  (450) 
2.1337541728239353

>  <path>  (450) 
/opt/xchem-fragalysis-2/maxwin/BulkDock/SCRATCH/505732/C1773-P23/C1773-P23.minimised.mol

>  <scratch_subdir>  (450) 
/opt/xchem-fragalysis-2/maxwin/BulkDock/SCRATCH/505732/C1773-P23

>  <fragmenstein_runtime>  (450) 
7.19509482383728

>  <fragmenstein_outcome>  (450) 
too moved

>  <fragmenstein_mode>  (450) 
expansion

>  <fragmenstein_error>  (450) 


$$$$
C1773-P31
     RDKit          3D

 42 43  0  0  0  0  0  0  0  0999 V2000
   18.1194   -1.7210   10.3462 C   0  0  0  0  0  0  0  0  0  0  0  0
   17.8233   -1.6280   11.7615 N   0  0  0  0  0  0  0  0  0  0  0  0
   16.5305   -1.0352   12.1457 C   0  0  0  0  0  0  0  0  0  0  0  0
   15.9376   -0.0284   11.0858 C   0  0  0  0  0  0  0  0  0  0  0  0
   14.7647    0.6622   11.5152 O   0  0  0  0  0  0  0  0  0  0  0  0
   15.5094   -2.0233   12.6105 N   0  0  0  0  0  0  0  0  0  0  0  0
   14.9329   -2.7520   11.5129 C   0  0  0  0  0  0  0  0  0  0  0  0
   14.6133   -1.6646   13.6307 C   0  0  0  0  0  0  0  0  0  0  0  0
   13.2243   -1.8918   13.5633 C   0  0  0  0  0  0  0  0  0  0  0  0
   12.3256   -0.9812   14.0937 C   0  0  0  0  0  0  0  0  0  0  0  0
   12.8439    0.1723   14.6303 C   0  0  0  0  0  0  0  0  0  0  0  0
   14.2049    0.2159   14.9240 C   0  0  0  0  0  0  0  0  0  0  0  0
   15.0242   -0.8822   14.6852 C   0  0  0  0  0  0  0  0  0  0  0  0
   16.2652   -1.1946   15.5131 C   0  0  0  0  0  0  0  0  0  0  0  0
   16.0838   -2.3509   16.4363 N   0  0  0  0  0  0  0  0  0  0  0  0
   17.2636   -2.5177   17.3203 C   0  0  0  0  0  0  0  0  0  0  0  0
   17.8731   -3.5306   16.3280 C   0  0  0  0  0  0  0  0  0  0  0  0
   18.4546   -4.7356   16.8663 O   0  0  0  0  0  0  0  0  0  0  0  0
   16.4434   -3.6255   15.7618 C   0  0  0  0  0  0  0  0  0  0  0  0
   17.3532   -2.2618    9.7888 H   0  0  0  0  0  0  0  0  0  0  0  0
   19.0610   -2.2640   10.2135 H   0  0  0  0  0  0  0  0  0  0  0  0
   18.2633   -0.7334    9.8980 H   0  0  0  0  0  0  0  0  0  0  0  0
   17.8182   -2.5554   12.1878 H   0  0  0  0  0  0  0  0  0  0  0  0
   16.7954   -0.3905   12.9877 H   0  0  0  0  0  0  0  0  0  0  0  0
   16.6835    0.7425   10.8623 H   0  0  0  0  0  0  0  0  0  0  0  0
   15.6952   -0.5237   10.1405 H   0  0  0  0  0  0  0  0  0  0  0  0
   14.2619    0.0435   12.0744 H   0  0  0  0  0  0  0  0  0  0  0  0
   15.7218   -3.2219   10.9260 H   0  0  0  0  0  0  0  0  0  0  0  0
   14.2799   -3.5610   11.8251 H   0  0  0  0  0  0  0  0  0  0  0  0
   14.3702   -2.0926   10.8536 H   0  0  0  0  0  0  0  0  0  0  0  0
   12.8007   -2.6945   12.9796 H   0  0  0  0  0  0  0  0  0  0  0  0
   11.2589   -1.1066   13.9596 H   0  0  0  0  0  0  0  0  0  0  0  0
   12.1973    1.0010   14.8971 H   0  0  0  0  0  0  0  0  0  0  0  0
   14.6074    1.0918   15.4224 H   0  0  0  0  0  0  0  0  0  0  0  0
   16.5088   -0.3039   16.1051 H   0  0  0  0  0  0  0  0  0  0  0  0
   17.1338   -1.3359   14.8606 H   0  0  0  0  0  0  0  0  0  0  0  0
   17.0079   -2.9533   18.2942 H   0  0  0  0  0  0  0  0  0  0  0  0
   17.8653   -1.6210   17.5034 H   0  0  0  0  0  0  0  0  0  0  0  0
   18.5739   -3.0631   15.6241 H   0  0  0  0  0  0  0  0  0  0  0  0
   19.2614   -4.4416   17.3208 H   0  0  0  0  0  0  0  0  0  0  0  0
   16.3978   -3.6390   14.6723 H   0  0  0  0  0  0  0  0  0  0  0  0
   15.8713   -4.4795   16.1364 H   0  0  0  0  0  0  0  0  0  0  0  0
  1  2  1  0
  2  3  1  0
  3  4  1  0
  4  5  1  0
  3  6  1  0
  6  7  1  0
  6  8  1  0
  8  9  2  0
  9 10  1  0
 10 11  2  0
 11 12  1  0
 12 13  2  0
 13 14  1  0
 14 15  1  0
 15 16  1  0
 16 17  1  0
 17 18  1  0
 17 19  1  0
 13  8  1  0
 19 15  1  0
  1 20  1  0
  1 21  1  0
  1 22  1  0
  2 23  1  0
  3 24  1  0
  4 25  1  0
  4 26  1  0
  5 27  1  0
  7 28  1  0
  7 29  1  0
  7 30  1  0
  9 31  1  0
 10 32  1  0
 11 33  1  0
 12 34  1  0
 14 35  1  0
 14 36  1  0
 16 37  1  0
 16 38  1  0
 17 39  1  0
 18 40  1  0
 19 41  1  0
 19 42  1  0
M  END
>  <Energy>  (451) 
104.69279774747402

>  <compound_id>  (451) 
1773

>  <target_id>  (451) 
1

>  <reference_id>  (451) 
31

>  <inspiration_ids>  (451) 
[23, 31]

>  <energy_score>  (451) 
-17.86228207211022

>  <distance_score>  (451) 
2.042236823607753

>  <path>  (451) 
/opt/xchem-fragalysis-2/maxwin/BulkDock/SCRATCH/505732/C1773-P31/C1773-P31.minimised.mol

>  <scratch_subdir>  (451) 
/opt/xchem-fragalysis-2/maxwin/BulkDock/SCRATCH/505732/C1773-P31

>  <fragmenstein_runtime>  (451) 
7.329861879348755

>  <fragmenstein_outcome>  (451) 
too moved

>  <fragmenstein_mode>  (451) 
expansion

>  <fragmenstein_error>  (451) 


$$$$
C1775-P23
     RDKit          3D

 37 39  0  0  0  0  0  0  0  0999 V2000
   14.4285   -0.0679   15.0990 O   0  0  0  0  0  0  0  0  0  0  0  0
   13.7991   -1.2629   15.3179 C   0  0  0  0  0  0  0  0  0  0  0  0
   12.5804   -1.4889   14.6632 C   0  0  0  0  0  0  0  0  0  0  0  0
   11.7891   -2.5739   15.0227 C   0  0  0  0  0  0  0  0  0  0  0  0
   12.2103   -3.4237   16.0358 C   0  0  0  0  0  0  0  0  0  0  0  0
   13.4474   -3.2256   16.6493 C   0  0  0  0  0  0  0  0  0  0  0  0
   14.3012   -2.1633   16.2760 C   0  0  0  0  0  0  0  0  0  0  0  0
   15.6812   -2.0039   16.9625 C   0  0  0  0  0  0  0  0  0  0  0  0
   16.6092   -1.4555   16.0199 O   0  0  0  0  0  0  0  0  0  0  0  0
   15.5254   -1.0526   18.1846 C   0  0  0  0  0  0  0  0  0  0  0  0
   15.6410    0.3458   18.0483 C   0  0  0  0  0  0  0  0  0  0  0  0
   15.4999    1.1980   19.1469 C   0  0  0  0  0  0  0  0  0  0  0  0
   15.2193    0.6736   20.4043 C   0  0  0  0  0  0  0  0  0  0  0  0
   15.0656   -0.7002   20.5613 C   0  0  0  0  0  0  0  0  0  0  0  0
   15.2113   -1.5528   19.4640 C   0  0  0  0  0  0  0  0  0  0  0  0
   16.2017   -3.3302   17.4064 N   0  0  0  0  0  0  0  0  0  0  0  0
   17.6152   -3.3004   17.8359 C   0  0  0  0  0  0  0  0  0  0  0  0
   17.8629   -4.5819   17.0079 C   0  0  0  0  0  0  0  0  0  0  0  0
   19.0738   -4.6295   16.2222 O   0  0  0  0  0  0  0  0  0  0  0  0
   16.5594   -4.2086   16.2679 C   0  0  0  0  0  0  0  0  0  0  0  0
   13.9422    0.4205   14.4134 H   0  0  0  0  0  0  0  0  0  0  0  0
   12.2067   -0.8014   13.9087 H   0  0  0  0  0  0  0  0  0  0  0  0
   10.8399   -2.7448   14.5240 H   0  0  0  0  0  0  0  0  0  0  0  0
   11.5964   -4.2691   16.3341 H   0  0  0  0  0  0  0  0  0  0  0  0
   13.7459   -3.9257   17.4276 H   0  0  0  0  0  0  0  0  0  0  0  0
   17.1540   -0.8201   16.5036 H   0  0  0  0  0  0  0  0  0  0  0  0
   15.8273    0.7923   17.0731 H   0  0  0  0  0  0  0  0  0  0  0  0
   15.5999    2.2724   19.0156 H   0  0  0  0  0  0  0  0  0  0  0  0
   15.1030    1.3335   21.2598 H   0  0  0  0  0  0  0  0  0  0  0  0
   14.8170   -1.1131   21.5369 H   0  0  0  0  0  0  0  0  0  0  0  0
   15.0713   -2.6212   19.6195 H   0  0  0  0  0  0  0  0  0  0  0  0
   18.2255   -2.4482   17.5176 H   0  0  0  0  0  0  0  0  0  0  0  0
   17.7565   -3.4293   18.9142 H   0  0  0  0  0  0  0  0  0  0  0  0
   17.7641   -5.4965   17.6063 H   0  0  0  0  0  0  0  0  0  0  0  0
   19.0290   -3.8432   15.6493 H   0  0  0  0  0  0  0  0  0  0  0  0
   16.7235   -3.7325   15.2944 H   0  0  0  0  0  0  0  0  0  0  0  0
   15.8762   -5.0506   16.1216 H   0  0  0  0  0  0  0  0  0  0  0  0
  1  2  1  0
  2  3  2  0
  3  4  1  0
  4  5  2  0
  5  6  1  0
  6  7  2  0
  7  8  1  0
  8  9  1  0
  8 10  1  0
 10 11  2  0
 11 12  1  0
 12 13  2  0
 13 14  1  0
 14 15  2  0
  8 16  1  0
 16 17  1  0
 17 18  1  0
 18 19  1  0
 18 20  1  0
  7  2  1  0
 15 10  1  0
 20 16  1  0
  1 21  1  0
  3 22  1  0
  4 23  1  0
  5 24  1  0
  6 25  1  0
  9 26  1  0
 11 27  1  0
 12 28  1  0
 13 29  1  0
 14 30  1  0
 15 31  1  0
 17 32  1  0
 17 33  1  0
 18 34  1  0
 19 35  1  0
 20 36  1  0
 20 37  1  0
M  END
>  <Energy>  (452) 
58.097021176345251

>  <compound_id>  (452) 
1775

>  <target_id>  (452) 
1

>  <reference_id>  (452) 
23

>  <inspiration_ids>  (452) 
[23, 50]

>  <energy_score>  (452) 
-39.67609110669261

>  <distance_score>  (452) 
0.7626820500364919

>  <path>  (452) 
/opt/xchem-fragalysis-2/maxwin/BulkDock/SCRATCH/505732/C1775-P23/C1775-P23.minimised.mol

>  <scratch_subdir>  (452) 
/opt/xchem-fragalysis-2/maxwin/BulkDock/SCRATCH/505732/C1775-P23

>  <fragmenstein_runtime>  (452) 
3.3359572887420654

>  <fragmenstein_outcome>  (452) 
acceptable

>  <fragmenstein_mode>  (452) 
expansion

>  <fragmenstein_error>  (452) 


$$$$
C1775-P50
     RDKit          3D

 37 39  0  0  0  0  0  0  0  0999 V2000
   14.3869   -0.0410   15.1617 O   0  0  0  0  0  0  0  0  0  0  0  0
   13.7101   -1.1644   15.5476 C   0  0  0  0  0  0  0  0  0  0  0  0
   12.4758   -1.3632   14.9272 C   0  0  0  0  0  0  0  0  0  0  0  0
   11.7095   -2.4745   15.2498 C   0  0  0  0  0  0  0  0  0  0  0  0
   12.1644   -3.3516   16.2275 C   0  0  0  0  0  0  0  0  0  0  0  0
   13.3894   -3.1332   16.8684 C   0  0  0  0  0  0  0  0  0  0  0  0
   14.2218   -2.0544   16.5113 C   0  0  0  0  0  0  0  0  0  0  0  0
   15.5891   -1.8447   17.2043 C   0  0  0  0  0  0  0  0  0  0  0  0
   16.4474   -1.1751   16.2604 O   0  0  0  0  0  0  0  0  0  0  0  0
   15.3856   -0.9108   18.4230 C   0  0  0  0  0  0  0  0  0  0  0  0
   15.4451    0.4921   18.2909 C   0  0  0  0  0  0  0  0  0  0  0  0
   15.2536    1.3315   19.3894 C   0  0  0  0  0  0  0  0  0  0  0  0
   14.9806    0.7887   20.6400 C   0  0  0  0  0  0  0  0  0  0  0  0
   14.8856   -0.5910   20.7914 C   0  0  0  0  0  0  0  0  0  0  0  0
   15.0799   -1.4322   19.6945 C   0  0  0  0  0  0  0  0  0  0  0  0
   16.2082   -3.1267   17.6248 N   0  0  0  0  0  0  0  0  0  0  0  0
   17.6133   -3.0142   18.0789 C   0  0  0  0  0  0  0  0  0  0  0  0
   17.9339   -4.3030   17.2878 C   0  0  0  0  0  0  0  0  0  0  0  0
   19.1654   -4.3390   16.5364 O   0  0  0  0  0  0  0  0  0  0  0  0
   16.6443   -3.9820   16.5041 C   0  0  0  0  0  0  0  0  0  0  0  0
   15.3355   -0.2595   15.2781 H   0  0  0  0  0  0  0  0  0  0  0  0
   12.1264   -0.6597   14.1768 H   0  0  0  0  0  0  0  0  0  0  0  0
   10.7668   -2.6555   14.7390 H   0  0  0  0  0  0  0  0  0  0  0  0
   11.5728   -4.2246   16.4881 H   0  0  0  0  0  0  0  0  0  0  0  0
   13.6980   -3.8353   17.6404 H   0  0  0  0  0  0  0  0  0  0  0  0
   17.1142   -0.7217   16.8030 H   0  0  0  0  0  0  0  0  0  0  0  0
   15.6201    0.9584   17.3241 H   0  0  0  0  0  0  0  0  0  0  0  0
   15.2967    2.4108   19.2648 H   0  0  0  0  0  0  0  0  0  0  0  0
   14.8154    1.4409   21.4938 H   0  0  0  0  0  0  0  0  0  0  0  0
   14.6373   -1.0155   21.7622 H   0  0  0  0  0  0  0  0  0  0  0  0
   14.9790   -2.5058   19.8437 H   0  0  0  0  0  0  0  0  0  0  0  0
   18.1913   -2.1476   17.7426 H   0  0  0  0  0  0  0  0  0  0  0  0
   17.7421   -3.1069   19.1623 H   0  0  0  0  0  0  0  0  0  0  0  0
   17.8434   -5.2066   17.9045 H   0  0  0  0  0  0  0  0  0  0  0  0
   19.1081   -3.5970   15.9098 H   0  0  0  0  0  0  0  0  0  0  0  0
   16.8122   -3.4947   15.5377 H   0  0  0  0  0  0  0  0  0  0  0  0
   16.0272   -4.8684   16.3596 H   0  0  0  0  0  0  0  0  0  0  0  0
  1  2  1  0
  2  3  2  0
  3  4  1  0
  4  5  2  0
  5  6  1  0
  6  7  2  0
  7  8  1  0
  8  9  1  0
  8 10  1  0
 10 11  2  0
 11 12  1  0
 12 13  2  0
 13 14  1  0
 14 15  2  0
  8 16  1  0
 16 17  1  0
 17 18  1  0
 18 19  1  0
 18 20  1  0
  7  2  1  0
 15 10  1  0
 20 16  1  0
  1 21  1  0
  3 22  1  0
  4 23  1  0
  5 24  1  0
  6 25  1  0
  9 26  1  0
 11 27  1  0
 12 28  1  0
 13 29  1  0
 14 30  1  0
 15 31  1  0
 17 32  1  0
 17 33  1  0
 18 34  1  0
 19 35  1  0
 20 36  1  0
 20 37  1  0
M  END
>  <Energy>  (453) 
51.672291731680453

>  <compound_id>  (453) 
1775

>  <target_id>  (453) 
1

>  <reference_id>  (453) 
50

>  <inspiration_ids>  (453) 
[23, 50]

>  <energy_score>  (453) 
-46.10082055135739

>  <distance_score>  (453) 
0.7891781052847691

>  <path>  (453) 
/opt/xchem-fragalysis-2/maxwin/BulkDock/SCRATCH/505732/C1775-P50/C1775-P50.minimised.mol

>  <scratch_subdir>  (453) 
/opt/xchem-fragalysis-2/maxwin/BulkDock/SCRATCH/505732/C1775-P50

>  <fragmenstein_runtime>  (453) 
3.702251434326172

>  <fragmenstein_outcome>  (453) 
acceptable

>  <fragmenstein_mode>  (453) 
expansion

>  <fragmenstein_error>  (453) 


$$$$
C1776-P23
     RDKit          3D

 48 50  0  0  0  0  0  0  0  0999 V2000
   13.4109   -4.7299   21.0443 C   0  0  0  0  0  0  0  0  0  0  0  0
   14.9008   -4.9156   20.1039 S   0  0  0  0  0  0  0  0  0  0  0  0
   15.3005   -6.3067   20.2045 O   0  0  0  0  0  0  0  0  0  0  0  0
   15.8215   -3.8578   20.4755 O   0  0  0  0  0  0  0  0  0  0  0  0
   14.3969   -4.6464   18.4310 C   0  0  0  0  0  0  0  0  0  0  0  0
   13.8149   -3.2934   18.1852 C   0  0  0  0  0  0  0  0  0  0  0  0
   14.2687   -2.2767   19.0502 O   0  0  0  0  0  0  0  0  0  0  0  0
   13.7272   -2.7842   16.7613 C   0  0  0  0  0  0  0  0  0  0  0  0
   12.5259   -3.0320   16.0554 C   0  0  0  0  0  0  0  0  0  0  0  0
   12.2671   -2.4336   14.8244 C   0  0  0  0  0  0  0  0  0  0  0  0
   13.2272   -1.6146   14.2483 C   0  0  0  0  0  0  0  0  0  0  0  0
   14.4528   -1.4185   14.8872 C   0  0  0  0  0  0  0  0  0  0  0  0
   14.7321   -1.9932   16.1475 C   0  0  0  0  0  0  0  0  0  0  0  0
   16.1352   -1.7252   16.7677 C   0  0  0  0  0  0  0  0  0  0  0  0
   16.1046   -0.6366   17.8669 C   0  0  0  0  0  0  0  0  0  0  0  0
   16.8386   -0.7054   19.0604 C   0  0  0  0  0  0  0  0  0  0  0  0
   16.7112    0.2537   20.0743 C   0  0  0  0  0  0  0  0  0  0  0  0
   15.8555    1.3281   19.9215 C   0  0  0  0  0  0  0  0  0  0  0  0
   15.1581    1.4533   18.7336 C   0  0  0  0  0  0  0  0  0  0  0  0
   15.2952    0.4973   17.7171 C   0  0  0  0  0  0  0  0  0  0  0  0
   16.7230   -3.0301   17.1740 N   0  0  0  0  0  0  0  0  0  0  0  0
   18.2117   -3.0078   17.3013 C   0  0  0  0  0  0  0  0  0  0  0  0
   18.2187   -4.4130   16.6550 C   0  0  0  0  0  0  0  0  0  0  0  0
   19.3367   -4.7316   15.8075 O   0  0  0  0  0  0  0  0  0  0  0  0
   16.9331   -3.9059   15.9664 C   0  0  0  0  0  0  0  0  0  0  0  0
   12.6551   -5.3944   20.6274 H   0  0  0  0  0  0  0  0  0  0  0  0
   13.6227   -5.0054   22.0792 H   0  0  0  0  0  0  0  0  0  0  0  0
   13.0850   -3.6952   20.9975 H   0  0  0  0  0  0  0  0  0  0  0  0
   13.5940   -5.3518   18.2354 H   0  0  0  0  0  0  0  0  0  0  0  0
   15.2375   -4.9116   17.7979 H   0  0  0  0  0  0  0  0  0  0  0  0
   12.7812   -3.4516   18.4858 H   0  0  0  0  0  0  0  0  0  0  0  0
   15.1711   -2.4840   19.3715 H   0  0  0  0  0  0  0  0  0  0  0  0
   11.7636   -3.6817   16.4781 H   0  0  0  0  0  0  0  0  0  0  0  0
   11.3260   -2.6126   14.3099 H   0  0  0  0  0  0  0  0  0  0  0  0
   13.0350   -1.1458   13.2872 H   0  0  0  0  0  0  0  0  0  0  0  0
   15.1979   -0.7968   14.3930 H   0  0  0  0  0  0  0  0  0  0  0  0
   16.7661   -1.2937   15.9756 H   0  0  0  0  0  0  0  0  0  0  0  0
   17.4814   -1.5490   19.2823 H   0  0  0  0  0  0  0  0  0  0  0  0
   17.2719    0.1323   20.9982 H   0  0  0  0  0  0  0  0  0  0  0  0
   15.7464    2.0646   20.7110 H   0  0  0  0  0  0  0  0  0  0  0  0
   14.5071    2.3103   18.5814 H   0  0  0  0  0  0  0  0  0  0  0  0
   14.7329    0.6528   16.7995 H   0  0  0  0  0  0  0  0  0  0  0  0
   18.6025   -3.0145   18.3220 H   0  0  0  0  0  0  0  0  0  0  0  0
   18.7360   -2.2387   16.7201 H   0  0  0  0  0  0  0  0  0  0  0  0
   18.0385   -5.2201   17.3782 H   0  0  0  0  0  0  0  0  0  0  0  0
   19.1382   -5.6186   15.4626 H   0  0  0  0  0  0  0  0  0  0  0  0
   17.1182   -3.3867   15.0163 H   0  0  0  0  0  0  0  0  0  0  0  0
   16.1688   -4.6700   15.8038 H   0  0  0  0  0  0  0  0  0  0  0  0
  1  2  1  0
  2  3  2  0
  2  4  2  0
  2  5  1  0
  5  6  1  0
  6  7  1  0
  6  8  1  0
  8  9  2  0
  9 10  1  0
 10 11  2  0
 11 12  1  0
 12 13  2  0
 13 14  1  0
 14 15  1  0
 15 16  2  0
 16 17  1  0
 17 18  2  0
 18 19  1  0
 19 20  2  0
 14 21  1  0
 21 22  1  0
 22 23  1  0
 23 24  1  0
 23 25  1  0
 13  8  1  0
 20 15  1  0
 25 21  1  0
  1 26  1  0
  1 27  1  0
  1 28  1  0
  5 29  1  0
  5 30  1  0
  6 31  1  0
  7 32  1  0
  9 33  1  0
 10 34  1  0
 11 35  1  0
 12 36  1  0
 14 37  1  0
 16 38  1  0
 17 39  1  0
 18 40  1  0
 19 41  1  0
 20 42  1  0
 22 43  1  0
 22 44  1  0
 23 45  1  0
 24 46  1  0
 25 47  1  0
 25 48  1  0
M  END
>  <Energy>  (454) 
104.65353115676858

>  <compound_id>  (454) 
1776

>  <target_id>  (454) 
1

>  <reference_id>  (454) 
23

>  <inspiration_ids>  (454) 
[23, 60]

>  <energy_score>  (454) 
-33.454411551941206

>  <distance_score>  (454) 
1.2195769873978841

>  <path>  (454) 
/opt/xchem-fragalysis-2/maxwin/BulkDock/SCRATCH/505732/C1776-P23/C1776-P23.minimised.mol

>  <scratch_subdir>  (454) 
/opt/xchem-fragalysis-2/maxwin/BulkDock/SCRATCH/505732/C1776-P23

>  <fragmenstein_runtime>  (454) 
3.5267302989959717

>  <fragmenstein_outcome>  (454) 
too moved

>  <fragmenstein_mode>  (454) 
expansion

>  <fragmenstein_error>  (454) 


$$$$
C1776-P60
     RDKit          3D

 48 50  0  0  0  0  0  0  0  0999 V2000
   13.2102   -4.6584   21.0055 C   0  0  0  0  0  0  0  0  0  0  0  0
   14.7129   -4.7144   20.0745 S   0  0  0  0  0  0  0  0  0  0  0  0
   15.2196   -6.0720   20.1513 O   0  0  0  0  0  0  0  0  0  0  0  0
   15.5474   -3.6043   20.4923 O   0  0  0  0  0  0  0  0  0  0  0  0
   14.2055   -4.4354   18.4028 C   0  0  0  0  0  0  0  0  0  0  0  0
   13.5840   -3.0877   18.1592 C   0  0  0  0  0  0  0  0  0  0  0  0
   13.9503   -2.0495   19.0328 O   0  0  0  0  0  0  0  0  0  0  0  0
   13.5837   -2.5982   16.7262 C   0  0  0  0  0  0  0  0  0  0  0  0
   12.4129   -2.8383   15.9686 C   0  0  0  0  0  0  0  0  0  0  0  0
   12.2539   -2.3256   14.6851 C   0  0  0  0  0  0  0  0  0  0  0  0
   13.2803   -1.5893   14.1151 C   0  0  0  0  0  0  0  0  0  0  0  0
   14.4699   -1.3899   14.8172 C   0  0  0  0  0  0  0  0  0  0  0  0
   14.6552   -1.8890   16.1267 C   0  0  0  0  0  0  0  0  0  0  0  0
   16.0420   -1.6453   16.7879 C   0  0  0  0  0  0  0  0  0  0  0  0
   15.9946   -0.5588   17.8837 C   0  0  0  0  0  0  0  0  0  0  0  0
   15.3775    0.6760   17.6098 C   0  0  0  0  0  0  0  0  0  0  0  0
   15.2073    1.6422   18.6071 C   0  0  0  0  0  0  0  0  0  0  0  0
   15.6569    1.4030   19.9010 C   0  0  0  0  0  0  0  0  0  0  0  0
   16.3111    0.2133   20.1883 C   0  0  0  0  0  0  0  0  0  0  0  0
   16.5035   -0.7401   19.1839 C   0  0  0  0  0  0  0  0  0  0  0  0
   16.6203   -2.9478   17.2025 N   0  0  0  0  0  0  0  0  0  0  0  0
   18.0981   -2.9106   17.4023 C   0  0  0  0  0  0  0  0  0  0  0  0
   18.1471   -4.3176   16.7524 C   0  0  0  0  0  0  0  0  0  0  0  0
   19.3044   -4.6308   15.9559 O   0  0  0  0  0  0  0  0  0  0  0  0
   16.8912   -3.8169   16.0031 C   0  0  0  0  0  0  0  0  0  0  0  0
   13.4405   -4.9136   22.0418 H   0  0  0  0  0  0  0  0  0  0  0  0
   12.7968   -3.6540   20.9576 H   0  0  0  0  0  0  0  0  0  0  0  0
   12.5165   -5.3870   20.5882 H   0  0  0  0  0  0  0  0  0  0  0  0
   13.4717   -5.1972   18.1414 H   0  0  0  0  0  0  0  0  0  0  0  0
   15.0744   -4.6438   17.7890 H   0  0  0  0  0  0  0  0  0  0  0  0
   12.5413   -3.2333   18.4083 H   0  0  0  0  0  0  0  0  0  0  0  0
   14.7751   -2.2701   19.5079 H   0  0  0  0  0  0  0  0  0  0  0  0
   11.6012   -3.4302   16.3821 H   0  0  0  0  0  0  0  0  0  0  0  0
   11.3368   -2.5051   14.1285 H   0  0  0  0  0  0  0  0  0  0  0  0
   13.1690   -1.1897   13.1112 H   0  0  0  0  0  0  0  0  0  0  0  0
   15.2686   -0.8364   14.3256 H   0  0  0  0  0  0  0  0  0  0  0  0
   16.7004   -1.2149   16.0176 H   0  0  0  0  0  0  0  0  0  0  0  0
   14.9792    0.8853   16.6198 H   0  0  0  0  0  0  0  0  0  0  0  0
   14.6974    2.5741   18.3761 H   0  0  0  0  0  0  0  0  0  0  0  0
   15.4999    2.1434   20.6800 H   0  0  0  0  0  0  0  0  0  0  0  0
   16.6670    0.0153   21.1960 H   0  0  0  0  0  0  0  0  0  0  0  0
   16.9924   -1.6641   19.4747 H   0  0  0  0  0  0  0  0  0  0  0  0
   18.4347   -2.9028   18.4423 H   0  0  0  0  0  0  0  0  0  0  0  0
   18.6431   -2.1376   16.8454 H   0  0  0  0  0  0  0  0  0  0  0  0
   17.9305   -5.1328   17.4562 H   0  0  0  0  0  0  0  0  0  0  0  0
   20.0058   -4.8134   16.6048 H   0  0  0  0  0  0  0  0  0  0  0  0
   17.1166   -3.2927   15.0648 H   0  0  0  0  0  0  0  0  0  0  0  0
   16.1374   -4.5835   15.8041 H   0  0  0  0  0  0  0  0  0  0  0  0
  1  2  1  0
  2  3  2  0
  2  4  2  0
  2  5  1  0
  5  6  1  0
  6  7  1  0
  6  8  1  0
  8  9  2  0
  9 10  1  0
 10 11  2  0
 11 12  1  0
 12 13  2  0
 13 14  1  0
 14 15  1  0
 15 16  2  0
 16 17  1  0
 17 18  2  0
 18 19  1  0
 19 20  2  0
 14 21  1  0
 21 22  1  0
 22 23  1  0
 23 24  1  0
 23 25  1  0
 13  8  1  0
 20 15  1  0
 25 21  1  0
  1 26  1  0
  1 27  1  0
  1 28  1  0
  5 29  1  0
  5 30  1  0
  6 31  1  0
  7 32  1  0
  9 33  1  0
 10 34  1  0
 11 35  1  0
 12 36  1  0
 14 37  1  0
 16 38  1  0
 17 39  1  0
 18 40  1  0
 19 41  1  0
 20 42  1  0
 22 43  1  0
 22 44  1  0
 23 45  1  0
 24 46  1  0
 25 47  1  0
 25 48  1  0
M  END
>  <Energy>  (455) 
101.86964359482207

>  <compound_id>  (455) 
1776

>  <target_id>  (455) 
1

>  <reference_id>  (455) 
60

>  <inspiration_ids>  (455) 
[23, 60]

>  <energy_score>  (455) 
-36.23829911388603

>  <distance_score>  (455) 
0.9680568936879507

>  <path>  (455) 
/opt/xchem-fragalysis-2/maxwin/BulkDock/SCRATCH/505732/C1776-P60/C1776-P60.minimised.mol

>  <scratch_subdir>  (455) 
/opt/xchem-fragalysis-2/maxwin/BulkDock/SCRATCH/505732/C1776-P60

>  <fragmenstein_runtime>  (455) 
3.990536689758301

>  <fragmenstein_outcome>  (455) 
acceptable

>  <fragmenstein_mode>  (455) 
expansion

>  <fragmenstein_error>  (455) 


$$$$
C1778-P23
     RDKit          3D

 43 45  0  0  0  0  0  0  0  0999 V2000
   10.3584   -2.5377   15.0498 C   0  0  0  0  0  0  0  0  0  0  0  0
   11.4829   -2.1541   14.2500 N   0  0  0  0  0  0  0  0  0  0  0  0
   12.6552   -2.1225   15.0052 C   0  0  0  0  0  0  0  0  0  0  0  0
   12.9273   -3.1215   15.9449 C   0  0  0  0  0  0  0  0  0  0  0  0
   14.0888   -3.0873   16.6831 C   0  0  0  0  0  0  0  0  0  0  0  0
   15.0475   -2.0897   16.4493 C   0  0  0  0  0  0  0  0  0  0  0  0
   16.3633   -2.0830   17.2651 C   0  0  0  0  0  0  0  0  0  0  0  0
   17.5440   -1.6753   16.3265 C   0  0  0  0  0  0  0  0  0  0  0  0
   18.6596   -1.2931   16.6823 O   0  0  0  0  0  0  0  0  0  0  0  0
   16.1172   -1.0664   18.4169 C   0  0  0  0  0  0  0  0  0  0  0  0
   16.4213    0.3011   18.2781 C   0  0  0  0  0  0  0  0  0  0  0  0
   16.0834    1.2205   19.2757 C   0  0  0  0  0  0  0  0  0  0  0  0
   15.4337    0.7954   20.4306 C   0  0  0  0  0  0  0  0  0  0  0  0
   15.1146   -0.5486   20.5891 C   0  0  0  0  0  0  0  0  0  0  0  0
   15.4442   -1.4673   19.5907 C   0  0  0  0  0  0  0  0  0  0  0  0
   16.6272   -3.4630   17.8095 N   0  0  0  0  0  0  0  0  0  0  0  0
   17.9173   -3.6311   18.4885 C   0  0  0  0  0  0  0  0  0  0  0  0
   18.3894   -4.5939   17.3763 C   0  0  0  0  0  0  0  0  0  0  0  0
   19.4775   -4.1706   16.5267 O   0  0  0  0  0  0  0  0  0  0  0  0
   16.9765   -4.4617   16.7838 C   0  0  0  0  0  0  0  0  0  0  0  0
   14.7567   -1.0637   15.5265 C   0  0  0  0  0  0  0  0  0  0  0  0
   13.5650   -1.0840   14.8233 C   0  0  0  0  0  0  0  0  0  0  0  0
   13.2046   -0.0396   14.0170 O   0  0  0  0  0  0  0  0  0  0  0  0
   10.4883   -2.1700   16.0636 H   0  0  0  0  0  0  0  0  0  0  0  0
    9.4041   -2.1168   14.7384 H   0  0  0  0  0  0  0  0  0  0  0  0
   10.2816   -3.6237   15.0615 H   0  0  0  0  0  0  0  0  0  0  0  0
   11.3316   -1.2804   13.7411 H   0  0  0  0  0  0  0  0  0  0  0  0
   12.2406   -3.9460   16.1132 H   0  0  0  0  0  0  0  0  0  0  0  0
   14.2404   -3.8657   17.4269 H   0  0  0  0  0  0  0  0  0  0  0  0
   17.3665   -1.8456   15.2490 H   0  0  0  0  0  0  0  0  0  0  0  0
   16.9286    0.6785   17.3932 H   0  0  0  0  0  0  0  0  0  0  0  0
   16.3370    2.2706   19.1528 H   0  0  0  0  0  0  0  0  0  0  0  0
   15.1772    1.5094   21.2086 H   0  0  0  0  0  0  0  0  0  0  0  0
   14.5968   -0.8857   21.4850 H   0  0  0  0  0  0  0  0  0  0  0  0
   15.1547   -2.5072   19.7342 H   0  0  0  0  0  0  0  0  0  0  0  0
   17.8216   -4.1238   19.4643 H   0  0  0  0  0  0  0  0  0  0  0  0
   18.5300   -2.7397   18.6496 H   0  0  0  0  0  0  0  0  0  0  0  0
   18.5949   -5.6050   17.7471 H   0  0  0  0  0  0  0  0  0  0  0  0
   19.5559   -3.2034   16.6519 H   0  0  0  0  0  0  0  0  0  0  0  0
   16.9401   -4.1511   15.7344 H   0  0  0  0  0  0  0  0  0  0  0  0
   16.3898   -5.3836   16.8664 H   0  0  0  0  0  0  0  0  0  0  0  0
   15.4453   -0.2375   15.3790 H   0  0  0  0  0  0  0  0  0  0  0  0
   13.8198    0.6980   14.1481 H   0  0  0  0  0  0  0  0  0  0  0  0
  1  2  1  0
  2  3  1  0
  3  4  2  0
  4  5  1  0
  5  6  2  0
  6  7  1  0
  7  8  1  0
  8  9  2  0
  7 10  1  0
 10 11  2  0
 11 12  1  0
 12 13  2  0
 13 14  1  0
 14 15  2  0
  7 16  1  0
 16 17  1  0
 17 18  1  0
 18 19  1  0
 18 20  1  0
  6 21  1  0
 21 22  2  0
 22 23  1  0
 22  3  1  0
 15 10  1  0
 20 16  1  0
  1 24  1  0
  1 25  1  0
  1 26  1  0
  2 27  1  0
  4 28  1  0
  5 29  1  0
  8 30  1  0
 11 31  1  0
 12 32  1  0
 13 33  1  0
 14 34  1  0
 15 35  1  0
 17 36  1  0
 17 37  1  0
 18 38  1  0
 19 39  1  0
 20 40  1  0
 20 41  1  0
 21 42  1  0
 23 43  1  0
M  END
>  <Energy>  (456) 
151.82143499815101

>  <compound_id>  (456) 
1778

>  <target_id>  (456) 
1

>  <reference_id>  (456) 
23

>  <inspiration_ids>  (456) 
[23, 66]

>  <energy_score>  (456) 
-38.96602944494856

>  <distance_score>  (456) 
0.8787668589509979

>  <path>  (456) 
/opt/xchem-fragalysis-2/maxwin/BulkDock/SCRATCH/505732/C1778-P23/C1778-P23.minimised.mol

>  <scratch_subdir>  (456) 
/opt/xchem-fragalysis-2/maxwin/BulkDock/SCRATCH/505732/C1778-P23

>  <fragmenstein_runtime>  (456) 
3.1120951175689697

>  <fragmenstein_outcome>  (456) 
acceptable

>  <fragmenstein_mode>  (456) 
expansion

>  <fragmenstein_error>  (456) 


$$$$
C1778-P66
     RDKit          3D

 43 45  0  0  0  0  0  0  0  0999 V2000
   10.6300   -3.0553   14.6780 C   0  0  0  0  0  0  0  0  0  0  0  0
   11.2754   -1.8354   15.0530 N   0  0  0  0  0  0  0  0  0  0  0  0
   12.6074   -2.0307   15.4247 C   0  0  0  0  0  0  0  0  0  0  0  0
   12.9380   -3.0123   16.3574 C   0  0  0  0  0  0  0  0  0  0  0  0
   14.1957   -3.0411   16.9104 C   0  0  0  0  0  0  0  0  0  0  0  0
   15.1773   -2.1158   16.5148 C   0  0  0  0  0  0  0  0  0  0  0  0
   16.5009   -2.0673   17.3091 C   0  0  0  0  0  0  0  0  0  0  0  0
   17.6873   -1.5316   16.4533 C   0  0  0  0  0  0  0  0  0  0  0  0
   18.0009   -1.9198   15.3269 O   0  0  0  0  0  0  0  0  0  0  0  0
   16.2116   -1.0908   18.4972 C   0  0  0  0  0  0  0  0  0  0  0  0
   16.2525    0.3097   18.3188 C   0  0  0  0  0  0  0  0  0  0  0  0
   15.9034    1.1828   19.3524 C   0  0  0  0  0  0  0  0  0  0  0  0
   15.4862    0.6788   20.5798 C   0  0  0  0  0  0  0  0  0  0  0  0
   15.4059   -0.6970   20.7717 C   0  0  0  0  0  0  0  0  0  0  0  0
   15.7597   -1.5720   19.7418 C   0  0  0  0  0  0  0  0  0  0  0  0
   16.8411   -3.4448   17.8146 N   0  0  0  0  0  0  0  0  0  0  0  0
   18.2212   -3.6265   18.2742 C   0  0  0  0  0  0  0  0  0  0  0  0
   18.4782   -4.6412   17.1396 C   0  0  0  0  0  0  0  0  0  0  0  0
   19.4615   -4.2861   16.1447 O   0  0  0  0  0  0  0  0  0  0  0  0
   17.0045   -4.4544   16.7517 C   0  0  0  0  0  0  0  0  0  0  0  0
   14.8592   -1.1552   15.5392 C   0  0  0  0  0  0  0  0  0  0  0  0
   13.5701   -1.0959   15.0361 C   0  0  0  0  0  0  0  0  0  0  0  0
   13.1866   -0.0667   14.2155 O   0  0  0  0  0  0  0  0  0  0  0  0
   10.7478   -3.8738   15.3852 H   0  0  0  0  0  0  0  0  0  0  0  0
    9.5628   -2.8377   14.6444 H   0  0  0  0  0  0  0  0  0  0  0  0
   11.0197   -3.3931   13.7137 H   0  0  0  0  0  0  0  0  0  0  0  0
   11.2261   -1.1583   14.2853 H   0  0  0  0  0  0  0  0  0  0  0  0
   12.2081   -3.7104   16.7504 H   0  0  0  0  0  0  0  0  0  0  0  0
   14.3820   -3.7613   17.7043 H   0  0  0  0  0  0  0  0  0  0  0  0
   18.3446   -0.8044   16.9625 H   0  0  0  0  0  0  0  0  0  0  0  0
   16.5353    0.7501   17.3657 H   0  0  0  0  0  0  0  0  0  0  0  0
   15.9440    2.2579   19.1958 H   0  0  0  0  0  0  0  0  0  0  0  0
   15.2032    1.3546   21.3827 H   0  0  0  0  0  0  0  0  0  0  0  0
   15.0454   -1.0953   21.7185 H   0  0  0  0  0  0  0  0  0  0  0  0
   15.6528   -2.6406   19.9212 H   0  0  0  0  0  0  0  0  0  0  0  0
   18.2823   -4.0756   19.2731 H   0  0  0  0  0  0  0  0  0  0  0  0
   18.8796   -2.7524   18.2817 H   0  0  0  0  0  0  0  0  0  0  0  0
   18.6956   -5.6462   17.5203 H   0  0  0  0  0  0  0  0  0  0  0  0
   19.0664   -3.5513   15.6303 H   0  0  0  0  0  0  0  0  0  0  0  0
   16.8349   -4.1420   15.7163 H   0  0  0  0  0  0  0  0  0  0  0  0
   16.4022   -5.3537   16.9194 H   0  0  0  0  0  0  0  0  0  0  0  0
   15.5873   -0.4097   15.2383 H   0  0  0  0  0  0  0  0  0  0  0  0
   13.9845    0.4035   13.9268 H   0  0  0  0  0  0  0  0  0  0  0  0
  1  2  1  0
  2  3  1  0
  3  4  2  0
  4  5  1  0
  5  6  2  0
  6  7  1  0
  7  8  1  0
  8  9  2  0
  7 10  1  0
 10 11  2  0
 11 12  1  0
 12 13  2  0
 13 14  1  0
 14 15  2  0
  7 16  1  0
 16 17  1  0
 17 18  1  0
 18 19  1  0
 18 20  1  0
  6 21  1  0
 21 22  2  0
 22 23  1  0
 22  3  1  0
 15 10  1  0
 20 16  1  0
  1 24  1  0
  1 25  1  0
  1 26  1  0
  2 27  1  0
  4 28  1  0
  5 29  1  0
  8 30  1  0
 11 31  1  0
 12 32  1  0
 13 33  1  0
 14 34  1  0
 15 35  1  0
 17 36  1  0
 17 37  1  0
 18 38  1  0
 19 39  1  0
 20 40  1  0
 20 41  1  0
 21 42  1  0
 23 43  1  0
M  END
>  <Energy>  (457) 
151.65550397120725

>  <compound_id>  (457) 
1778

>  <target_id>  (457) 
1

>  <reference_id>  (457) 
66

>  <inspiration_ids>  (457) 
[23, 66]

>  <energy_score>  (457) 
-39.131960471893535

>  <distance_score>  (457) 
0.9424363546821667

>  <path>  (457) 
/opt/xchem-fragalysis-2/maxwin/BulkDock/SCRATCH/505732/C1778-P66/C1778-P66.minimised.mol

>  <scratch_subdir>  (457) 
/opt/xchem-fragalysis-2/maxwin/BulkDock/SCRATCH/505732/C1778-P66

>  <fragmenstein_runtime>  (457) 
3.8619556427001953

>  <fragmenstein_outcome>  (457) 
acceptable

>  <fragmenstein_mode>  (457) 
expansion

>  <fragmenstein_error>  (457) 


$$$$
C1780-P23
     RDKit          3D

 54 57  0  0  0  0  0  0  0  0999 V2000
   13.6170    2.8721   11.9348 O   0  0  0  0  0  0  0  0  0  0  0  0
   14.2505    2.0847   12.9407 C   0  0  0  0  0  0  0  0  0  0  0  0
   13.6280    2.3732   14.3049 C   0  0  0  0  0  0  0  0  0  0  0  0
   14.6446    2.4119   15.4497 C   0  0  0  0  0  0  0  0  0  0  0  0
   15.6269    1.3426   15.2705 N   0  0  0  0  0  0  0  0  0  0  0  0
   16.5051    1.1400   16.4308 C   0  0  0  0  0  0  0  0  0  0  0  0
   15.8683    0.5528   17.6859 C   0  0  0  0  0  0  0  0  0  0  0  0
   15.6935    1.4348   18.7774 C   0  0  0  0  0  0  0  0  0  0  0  0
   15.2449    0.9882   20.0204 C   0  0  0  0  0  0  0  0  0  0  0  0
   14.9512   -0.3535   20.2038 C   0  0  0  0  0  0  0  0  0  0  0  0
   15.0872   -1.2391   19.1368 C   0  0  0  0  0  0  0  0  0  0  0  0
   15.5431   -0.8190   17.8620 C   0  0  0  0  0  0  0  0  0  0  0  0
   15.6654   -1.8840   16.7480 C   0  0  0  0  0  0  0  0  0  0  0  0
   14.2897   -2.1869   16.1336 C   0  0  0  0  0  0  0  0  0  0  0  0
   13.8581   -1.4936   14.9923 C   0  0  0  0  0  0  0  0  0  0  0  0
   12.5944   -1.7184   14.4450 C   0  0  0  0  0  0  0  0  0  0  0  0
   11.7546   -2.6717   15.0066 C   0  0  0  0  0  0  0  0  0  0  0  0
   12.1799   -3.3993   16.1125 C   0  0  0  0  0  0  0  0  0  0  0  0
   13.4253   -3.1472   16.6856 C   0  0  0  0  0  0  0  0  0  0  0  0
   16.2881   -3.1337   17.2698 N   0  0  0  0  0  0  0  0  0  0  0  0
   17.7308   -2.9536   17.5678 C   0  0  0  0  0  0  0  0  0  0  0  0
   17.9645   -4.3628   16.9625 C   0  0  0  0  0  0  0  0  0  0  0  0
   19.1760   -4.5571   16.2048 O   0  0  0  0  0  0  0  0  0  0  0  0
   16.6774   -4.0511   16.1605 C   0  0  0  0  0  0  0  0  0  0  0  0
   16.4400    1.5767   14.0564 C   0  0  0  0  0  0  0  0  0  0  0  0
   15.7372    2.3749   12.9529 C   0  0  0  0  0  0  0  0  0  0  0  0
   12.6629    2.6839   11.9946 H   0  0  0  0  0  0  0  0  0  0  0  0
   14.0909    1.0331   12.6725 H   0  0  0  0  0  0  0  0  0  0  0  0
   13.0509    3.3053   14.2957 H   0  0  0  0  0  0  0  0  0  0  0  0
   12.9158    1.5668   14.4931 H   0  0  0  0  0  0  0  0  0  0  0  0
   15.1369    3.3923   15.4910 H   0  0  0  0  0  0  0  0  0  0  0  0
   14.0978    2.2990   16.3893 H   0  0  0  0  0  0  0  0  0  0  0  0
   17.0077    2.0851   16.6820 H   0  0  0  0  0  0  0  0  0  0  0  0
   17.3248    0.4603   16.1599 H   0  0  0  0  0  0  0  0  0  0  0  0
   15.9354    2.4907   18.6663 H   0  0  0  0  0  0  0  0  0  0  0  0
   15.1331    1.6875   20.8445 H   0  0  0  0  0  0  0  0  0  0  0  0
   14.6001   -0.7146   21.1679 H   0  0  0  0  0  0  0  0  0  0  0  0
   14.8416   -2.2865   19.3075 H   0  0  0  0  0  0  0  0  0  0  0  0
   16.3026   -1.4886   15.9476 H   0  0  0  0  0  0  0  0  0  0  0  0
   14.5060   -0.7665   14.5162 H   0  0  0  0  0  0  0  0  0  0  0  0
   12.2668   -1.1561   13.5753 H   0  0  0  0  0  0  0  0  0  0  0  0
   10.7825   -2.8638   14.5630 H   0  0  0  0  0  0  0  0  0  0  0  0
   11.5546   -4.1871   16.5202 H   0  0  0  0  0  0  0  0  0  0  0  0
   13.7253   -3.7239   17.5573 H   0  0  0  0  0  0  0  0  0  0  0  0
   18.2425   -2.1484   17.0252 H   0  0  0  0  0  0  0  0  0  0  0  0
   17.9661   -2.8663   18.6327 H   0  0  0  0  0  0  0  0  0  0  0  0
   17.8286   -5.1755   17.6887 H   0  0  0  0  0  0  0  0  0  0  0  0
   19.8745   -4.6357   16.8767 H   0  0  0  0  0  0  0  0  0  0  0  0
   16.0083   -4.9054   16.0244 H   0  0  0  0  0  0  0  0  0  0  0  0
   16.8646   -3.5844   15.1851 H   0  0  0  0  0  0  0  0  0  0  0  0
   16.7290    0.5965   13.6578 H   0  0  0  0  0  0  0  0  0  0  0  0
   17.3714    2.1063   14.2974 H   0  0  0  0  0  0  0  0  0  0  0  0
   15.8987    3.4506   13.1053 H   0  0  0  0  0  0  0  0  0  0  0  0
   16.1817    2.1467   11.9768 H   0  0  0  0  0  0  0  0  0  0  0  0
  1  2  1  0
  2  3  1  0
  3  4  1  0
  4  5  1  0
  5  6  1  0
  6  7  1  0
  7  8  2  0
  8  9  1  0
  9 10  2  0
 10 11  1  0
 11 12  2  0
 12 13  1  0
 13 14  1  0
 14 15  2  0
 15 16  1  0
 16 17  2  0
 17 18  1  0
 18 19  2  0
 13 20  1  0
 20 21  1  0
 21 22  1  0
 22 23  1  0
 22 24  1  0
  5 25  1  0
 25 26  1  0
 26  2  1  0
 12  7  1  0
 19 14  1  0
 24 20  1  0
  1 27  1  0
  2 28  1  0
  3 29  1  0
  3 30  1  0
  4 31  1  0
  4 32  1  0
  6 33  1  0
  6 34  1  0
  8 35  1  0
  9 36  1  0
 10 37  1  0
 11 38  1  0
 13 39  1  0
 15 40  1  0
 16 41  1  0
 17 42  1  0
 18 43  1  0
 19 44  1  0
 21 45  1  0
 21 46  1  0
 22 47  1  0
 23 48  1  0
 24 49  1  0
 24 50  1  0
 25 51  1  0
 25 52  1  0
 26 53  1  0
 26 54  1  0
M  END
>  <Energy>  (458) 
97.699080997906009

>  <compound_id>  (458) 
1780

>  <target_id>  (458) 
1

>  <reference_id>  (458) 
23

>  <inspiration_ids>  (458) 
[23, 76]

>  <energy_score>  (458) 
-67.39616886251574

>  <distance_score>  (458) 
0.58806398111332

>  <path>  (458) 
/opt/xchem-fragalysis-2/maxwin/BulkDock/SCRATCH/505732/C1780-P23/C1780-P23.minimised.mol

>  <scratch_subdir>  (458) 
/opt/xchem-fragalysis-2/maxwin/BulkDock/SCRATCH/505732/C1780-P23

>  <fragmenstein_runtime>  (458) 
25.84374690055847

>  <fragmenstein_outcome>  (458) 
acceptable

>  <fragmenstein_mode>  (458) 
expansion

>  <fragmenstein_error>  (458) 


$$$$
C1780-P76
     RDKit          3D

 54 57  0  0  0  0  0  0  0  0999 V2000
   12.8531    2.7589   12.4174 O   0  0  0  0  0  0  0  0  0  0  0  0
   13.6403    2.2090   13.4716 C   0  0  0  0  0  0  0  0  0  0  0  0
   13.7529    3.2042   14.6153 C   0  0  0  0  0  0  0  0  0  0  0  0
   14.6363    2.6672   15.7472 C   0  0  0  0  0  0  0  0  0  0  0  0
   15.4308    1.4841   15.3708 N   0  0  0  0  0  0  0  0  0  0  0  0
   16.4356    1.1354   16.3881 C   0  0  0  0  0  0  0  0  0  0  0  0
   15.8896    0.5301   17.6790 C   0  0  0  0  0  0  0  0  0  0  0  0
   15.7432    1.4077   18.7782 C   0  0  0  0  0  0  0  0  0  0  0  0
   15.3289    0.9559   20.0312 C   0  0  0  0  0  0  0  0  0  0  0  0
   15.0424   -0.3871   20.2181 C   0  0  0  0  0  0  0  0  0  0  0  0
   15.1611   -1.2713   19.1476 C   0  0  0  0  0  0  0  0  0  0  0  0
   15.5866   -0.8473   17.8634 C   0  0  0  0  0  0  0  0  0  0  0  0
   15.7019   -1.9146   16.7496 C   0  0  0  0  0  0  0  0  0  0  0  0
   14.3307   -2.2181   16.1297 C   0  0  0  0  0  0  0  0  0  0  0  0
   13.9088   -1.5295   14.9821 C   0  0  0  0  0  0  0  0  0  0  0  0
   12.6516   -1.7626   14.4228 C   0  0  0  0  0  0  0  0  0  0  0  0
   11.8060   -2.7114   14.9845 C   0  0  0  0  0  0  0  0  0  0  0  0
   12.2208   -3.4308   16.1000 C   0  0  0  0  0  0  0  0  0  0  0  0
   13.4623   -3.1761   16.6804 C   0  0  0  0  0  0  0  0  0  0  0  0
   16.3227   -3.1678   17.2654 N   0  0  0  0  0  0  0  0  0  0  0  0
   17.7621   -2.9874   17.5805 C   0  0  0  0  0  0  0  0  0  0  0  0
   18.0058   -4.3885   16.9609 C   0  0  0  0  0  0  0  0  0  0  0  0
   19.2260   -4.5697   16.2146 O   0  0  0  0  0  0  0  0  0  0  0  0
   16.7279   -4.0692   16.1479 C   0  0  0  0  0  0  0  0  0  0  0  0
   16.0648    1.7164   14.0631 C   0  0  0  0  0  0  0  0  0  0  0  0
   15.0268    1.8555   12.9428 C   0  0  0  0  0  0  0  0  0  0  0  0
   11.9282    2.7003   12.7219 H   0  0  0  0  0  0  0  0  0  0  0  0
   13.1411    1.2952   13.8092 H   0  0  0  0  0  0  0  0  0  0  0  0
   14.1725    4.1446   14.2335 H   0  0  0  0  0  0  0  0  0  0  0  0
   12.7571    3.4609   14.9959 H   0  0  0  0  0  0  0  0  0  0  0  0
   15.2880    3.4837   16.0863 H   0  0  0  0  0  0  0  0  0  0  0  0
   13.9945    2.4204   16.5935 H   0  0  0  0  0  0  0  0  0  0  0  0
   17.0542    2.0125   16.6269 H   0  0  0  0  0  0  0  0  0  0  0  0
   17.1535    0.4143   15.9786 H   0  0  0  0  0  0  0  0  0  0  0  0
   15.9721    2.4656   18.6608 H   0  0  0  0  0  0  0  0  0  0  0  0
   15.2332    1.6530   20.8591 H   0  0  0  0  0  0  0  0  0  0  0  0
   14.7127   -0.7507   21.1888 H   0  0  0  0  0  0  0  0  0  0  0  0
   14.9252   -2.3203   19.3223 H   0  0  0  0  0  0  0  0  0  0  0  0
   16.3410   -1.5228   15.9500 H   0  0  0  0  0  0  0  0  0  0  0  0
   14.5571   -0.7976   14.5128 H   0  0  0  0  0  0  0  0  0  0  0  0
   12.3305   -1.2048   13.5467 H   0  0  0  0  0  0  0  0  0  0  0  0
   10.8387   -2.9055   14.5314 H   0  0  0  0  0  0  0  0  0  0  0  0
   11.5922   -4.2166   16.5070 H   0  0  0  0  0  0  0  0  0  0  0  0
   13.7569   -3.7470   17.5575 H   0  0  0  0  0  0  0  0  0  0  0  0
   18.2769   -2.1741   17.0530 H   0  0  0  0  0  0  0  0  0  0  0  0
   17.9866   -2.9126   18.6487 H   0  0  0  0  0  0  0  0  0  0  0  0
   17.8631   -5.2109   17.6748 H   0  0  0  0  0  0  0  0  0  0  0  0
   19.9147   -4.6730   16.8931 H   0  0  0  0  0  0  0  0  0  0  0  0
   16.0625   -4.9221   15.9902 H   0  0  0  0  0  0  0  0  0  0  0  0
   16.9264   -3.5892   15.1811 H   0  0  0  0  0  0  0  0  0  0  0  0
   16.7274    0.8819   13.8016 H   0  0  0  0  0  0  0  0  0  0  0  0
   16.6942    2.6157   14.0982 H   0  0  0  0  0  0  0  0  0  0  0  0
   15.3679    2.6059   12.2184 H   0  0  0  0  0  0  0  0  0  0  0  0
   14.9523    0.9157   12.3806 H   0  0  0  0  0  0  0  0  0  0  0  0
  1  2  1  0
  2  3  1  0
  3  4  1  0
  4  5  1  0
  5  6  1  0
  6  7  1  0
  7  8  2  0
  8  9  1  0
  9 10  2  0
 10 11  1  0
 11 12  2  0
 12 13  1  0
 13 14  1  0
 14 15  2  0
 15 16  1  0
 16 17  2  0
 17 18  1  0
 18 19  2  0
 13 20  1  0
 20 21  1  0
 21 22  1  0
 22 23  1  0
 22 24  1  0
  5 25  1  0
 25 26  1  0
 26  2  1  0
 12  7  1  0
 19 14  1  0
 24 20  1  0
  1 27  1  0
  2 28  1  0
  3 29  1  0
  3 30  1  0
  4 31  1  0
  4 32  1  0
  6 33  1  0
  6 34  1  0
  8 35  1  0
  9 36  1  0
 10 37  1  0
 11 38  1  0
 13 39  1  0
 15 40  1  0
 16 41  1  0
 17 42  1  0
 18 43  1  0
 19 44  1  0
 21 45  1  0
 21 46  1  0
 22 47  1  0
 23 48  1  0
 24 49  1  0
 24 50  1  0
 25 51  1  0
 25 52  1  0
 26 53  1  0
 26 54  1  0
M  END
>  <Energy>  (459) 
98.424399408365147

>  <compound_id>  (459) 
1780

>  <target_id>  (459) 
1

>  <reference_id>  (459) 
76

>  <inspiration_ids>  (459) 
[23, 76]

>  <energy_score>  (459) 
-66.67085045205351

>  <distance_score>  (459) 
0.561688689901276

>  <path>  (459) 
/opt/xchem-fragalysis-2/maxwin/BulkDock/SCRATCH/505732/C1780-P76/C1780-P76.minimised.mol

>  <scratch_subdir>  (459) 
/opt/xchem-fragalysis-2/maxwin/BulkDock/SCRATCH/505732/C1780-P76

>  <fragmenstein_runtime>  (459) 
25.811488151550293

>  <fragmenstein_outcome>  (459) 
acceptable

>  <fragmenstein_mode>  (459) 
expansion

>  <fragmenstein_error>  (459) 


$$$$
C1783-P23
     RDKit          3D

 55 57  0  0  0  0  0  0  0  0999 V2000
   19.3894   -1.4756    9.4558 C   0  0  0  0  0  0  0  0  0  0  0  0
   18.5371   -1.3406   10.6185 N   0  0  0  0  0  0  0  0  0  0  0  0
   18.7311   -2.2373   11.6705 C   0  0  0  0  0  0  0  0  0  0  0  0
   18.8753   -3.6046   11.3933 C   0  0  0  0  0  0  0  0  0  0  0  0
   19.0118   -4.5426   12.4139 C   0  0  0  0  0  0  0  0  0  0  0  0
   18.9244   -4.1498   13.7516 C   0  0  0  0  0  0  0  0  0  0  0  0
   18.8779   -5.2030   14.8250 C   0  0  0  0  0  0  0  0  0  0  0  0
   19.1537   -4.7112   16.1736 N   0  0  0  0  0  0  0  0  0  0  0  0
   18.2000   -4.5370   17.0254 C   0  0  0  0  0  0  0  0  0  0  0  0
   16.6810   -4.8070   16.7756 C   0  0  0  0  0  0  0  0  0  0  0  0
   15.5044   -4.4538   17.7234 N   0  0  0  0  0  0  0  0  0  0  0  0
   15.1930   -3.0723   17.6220 C   0  0  0  0  0  0  0  0  0  0  0  0
   15.6036   -2.1319   18.2434 O   0  0  0  0  0  0  0  0  0  0  0  0
   14.1471   -2.7907   16.5989 C   0  0  0  0  0  0  0  0  0  0  0  0
   12.9600   -3.5301   16.6211 C   0  0  0  0  0  0  0  0  0  0  0  0
   11.9439   -3.2391   15.7110 C   0  0  0  0  0  0  0  0  0  0  0  0
   12.1020   -2.2195   14.7790 C   0  0  0  0  0  0  0  0  0  0  0  0
   13.2805   -1.4811   14.7507 C   0  0  0  0  0  0  0  0  0  0  0  0
   14.3175   -1.7574   15.6596 C   0  0  0  0  0  0  0  0  0  0  0  0
   15.5842   -0.9472   15.6075 C   0  0  0  0  0  0  0  0  0  0  0  0
   15.5918    0.0781   16.4979 F   0  0  0  0  0  0  0  0  0  0  0  0
   16.6886   -1.7035   15.8291 F   0  0  0  0  0  0  0  0  0  0  0  0
   15.7645   -0.3790   14.3804 F   0  0  0  0  0  0  0  0  0  0  0  0
   16.3640   -5.2003   18.7162 C   0  0  0  0  0  0  0  0  0  0  0  0
   17.5567   -4.4165   19.3285 C   0  0  0  0  0  0  0  0  0  0  0  0
   18.5165   -4.1545   18.2909 N   0  0  0  0  0  0  0  0  0  0  0  0
   18.8232   -2.7915   14.0464 C   0  0  0  0  0  0  0  0  0  0  0  0
   18.7611   -1.8462   13.0194 C   0  0  0  0  0  0  0  0  0  0  0  0
   18.8764   -0.1416   13.5065 S   0  0  0  0  0  0  0  0  0  0  0  0
   20.6260    0.1378   13.4467 C   0  0  0  0  0  0  0  0  0  0  0  0
   18.4770   -0.0127   14.8939 O   0  0  0  0  0  0  0  0  0  0  0  0
   18.2619    0.6780   12.4773 O   0  0  0  0  0  0  0  0  0  0  0  0
   19.2408   -0.6099    8.8019 H   0  0  0  0  0  0  0  0  0  0  0  0
   20.4482   -1.5019    9.7348 H   0  0  0  0  0  0  0  0  0  0  0  0
   19.1419   -2.3641    8.8669 H   0  0  0  0  0  0  0  0  0  0  0  0
   18.3909   -0.3701   10.9218 H   0  0  0  0  0  0  0  0  0  0  0  0
   18.8505   -3.9685   10.3687 H   0  0  0  0  0  0  0  0  0  0  0  0
   19.1316   -5.5923   12.1547 H   0  0  0  0  0  0  0  0  0  0  0  0
   17.9274   -5.7404   14.7536 H   0  0  0  0  0  0  0  0  0  0  0  0
   19.6534   -5.9475   14.6039 H   0  0  0  0  0  0  0  0  0  0  0  0
   16.4599   -4.2443   15.8564 H   0  0  0  0  0  0  0  0  0  0  0  0
   16.5629   -5.8546   16.4632 H   0  0  0  0  0  0  0  0  0  0  0  0
   12.8158   -4.3240   17.3498 H   0  0  0  0  0  0  0  0  0  0  0  0
   11.0343   -3.8299   15.7073 H   0  0  0  0  0  0  0  0  0  0  0  0
   11.3133   -2.0036   14.0649 H   0  0  0  0  0  0  0  0  0  0  0  0
   13.3913   -0.6856   14.0131 H   0  0  0  0  0  0  0  0  0  0  0  0
   16.5985   -6.2448   18.4493 H   0  0  0  0  0  0  0  0  0  0  0  0
   15.6678   -5.3257   19.5594 H   0  0  0  0  0  0  0  0  0  0  0  0
   17.2255   -3.4761   19.7789 H   0  0  0  0  0  0  0  0  0  0  0  0
   18.0192   -5.0201   20.1164 H   0  0  0  0  0  0  0  0  0  0  0  0
   19.5000   -4.0898   18.5229 H   0  0  0  0  0  0  0  0  0  0  0  0
   18.8167   -2.4658   15.0852 H   0  0  0  0  0  0  0  0  0  0  0  0
   20.8129    1.1749   13.7344 H   0  0  0  0  0  0  0  0  0  0  0  0
   20.9829   -0.0322   12.4292 H   0  0  0  0  0  0  0  0  0  0  0  0
   21.1217   -0.5346   14.1494 H   0  0  0  0  0  0  0  0  0  0  0  0
  1  2  1  0
  2  3  1  0
  3  4  2  0
  4  5  1  0
  5  6  2  0
  6  7  1  0
  7  8  1  0
  8  9  2  3
  9 10  1  0
 10 11  1  0
 11 12  1  0
 12 13  2  0
 12 14  1  0
 14 15  2  0
 15 16  1  0
 16 17  2  0
 17 18  1  0
 18 19  2  0
 19 20  1  0
 20 21  1  0
 20 22  1  0
 20 23  1  0
 11 24  1  0
 24 25  1  0
 25 26  1  0
  6 27  1  0
 27 28  2  0
 28 29  1  0
 29 30  1  0
 29 31  2  0
 29 32  2  0
 28  3  1  0
 26  9  1  0
 19 14  1  0
  1 33  1  0
  1 34  1  0
  1 35  1  0
  2 36  1  0
  4 37  1  0
  5 38  1  0
  7 39  1  0
  7 40  1  0
 10 41  1  0
 10 42  1  0
 15 43  1  0
 16 44  1  0
 17 45  1  0
 18 46  1  0
 24 47  1  0
 24 48  1  0
 25 49  1  0
 25 50  1  0
 26 51  1  0
 27 52  1  0
 30 53  1  0
 30 54  1  0
 30 55  1  0
M  END
>  <Energy>  (460) 
190.43590846985663

>  <compound_id>  (460) 
1783

>  <target_id>  (460) 
1

>  <reference_id>  (460) 
23

>  <inspiration_ids>  (460) 
[23, 83]

>  <energy_score>  (460) 
16.140100387781956

>  <distance_score>  (460) 
2.653551411120973

>  <path>  (460) 
/opt/xchem-fragalysis-2/maxwin/BulkDock/SCRATCH/505732/C1783-P23/C1783-P23.minimised.mol

>  <scratch_subdir>  (460) 
/opt/xchem-fragalysis-2/maxwin/BulkDock/SCRATCH/505732/C1783-P23

>  <fragmenstein_runtime>  (460) 
14.617575883865356

>  <fragmenstein_outcome>  (460) 
too moved

>  <fragmenstein_mode>  (460) 
expansion

>  <fragmenstein_error>  (460) 


$$$$
C1783-P83
     RDKit          3D

 55 57  0  0  0  0  0  0  0  0999 V2000
   18.5338   -5.2138   14.1234 C   0  0  0  0  0  0  0  0  0  0  0  0
   19.5828   -4.8328   13.1653 N   0  0  0  0  0  0  0  0  0  0  0  0
   19.1784   -3.7480   12.3543 C   0  0  0  0  0  0  0  0  0  0  0  0
   18.5356   -4.0377   11.1367 C   0  0  0  0  0  0  0  0  0  0  0  0
   17.9118   -3.0391   10.3874 C   0  0  0  0  0  0  0  0  0  0  0  0
   17.9589   -1.7109   10.8082 C   0  0  0  0  0  0  0  0  0  0  0  0
   16.9400   -0.7080   10.2948 C   0  0  0  0  0  0  0  0  0  0  0  0
   15.7036   -0.9384   11.0454 N   0  0  0  0  0  0  0  0  0  0  0  0
   15.6348   -0.4994   12.2534 C   0  0  0  0  0  0  0  0  0  0  0  0
   14.6259   -1.2388   13.1941 C   0  0  0  0  0  0  0  0  0  0  0  0
   14.3440   -0.8649   14.6671 N   0  0  0  0  0  0  0  0  0  0  0  0
   13.5005    0.2530   14.7270 C   0  0  0  0  0  0  0  0  0  0  0  0
   13.7590    1.4258   14.7744 O   0  0  0  0  0  0  0  0  0  0  0  0
   12.0475   -0.1354   14.8489 C   0  0  0  0  0  0  0  0  0  0  0  0
   11.1407    0.9444   14.8078 C   0  0  0  0  0  0  0  0  0  0  0  0
    9.7728    0.7628   14.9908 C   0  0  0  0  0  0  0  0  0  0  0  0
    9.2734   -0.5132   15.1643 C   0  0  0  0  0  0  0  0  0  0  0  0
   10.1508   -1.5906   15.1780 C   0  0  0  0  0  0  0  0  0  0  0  0
   11.5482   -1.4305   15.0963 C   0  0  0  0  0  0  0  0  0  0  0  0
   12.3714   -2.6769   15.3321 C   0  0  0  0  0  0  0  0  0  0  0  0
   12.9568   -3.1742   14.2121 F   0  0  0  0  0  0  0  0  0  0  0  0
   13.3302   -2.5331   16.2870 F   0  0  0  0  0  0  0  0  0  0  0  0
   11.5995   -3.7059   15.8024 F   0  0  0  0  0  0  0  0  0  0  0  0
   15.8427   -0.9740   14.7564 C   0  0  0  0  0  0  0  0  0  0  0  0
   16.6158    0.2783   14.3019 C   0  0  0  0  0  0  0  0  0  0  0  0
   16.4214    0.4267   12.8797 N   0  0  0  0  0  0  0  0  0  0  0  0
   18.7219   -1.3976   11.9359 C   0  0  0  0  0  0  0  0  0  0  0  0
   19.2463   -2.4096   12.7509 C   0  0  0  0  0  0  0  0  0  0  0  0
   19.8691   -1.8948   14.3311 S   0  0  0  0  0  0  0  0  0  0  0  0
   21.3720   -2.7764   14.6201 C   0  0  0  0  0  0  0  0  0  0  0  0
   18.8779   -2.2684   15.3254 O   0  0  0  0  0  0  0  0  0  0  0  0
   20.2314   -0.4911   14.2007 O   0  0  0  0  0  0  0  0  0  0  0  0
   18.7369   -4.7730   15.1021 H   0  0  0  0  0  0  0  0  0  0  0  0
   17.5264   -4.9261   13.8037 H   0  0  0  0  0  0  0  0  0  0  0  0
   18.5506   -6.3008   14.2558 H   0  0  0  0  0  0  0  0  0  0  0  0
   19.7787   -5.6307   12.5590 H   0  0  0  0  0  0  0  0  0  0  0  0
   18.4233   -5.0669   10.8008 H   0  0  0  0  0  0  0  0  0  0  0  0
   17.3097   -3.3251    9.5316 H   0  0  0  0  0  0  0  0  0  0  0  0
   16.7514   -0.8886    9.2301 H   0  0  0  0  0  0  0  0  0  0  0  0
   17.3084    0.3212   10.3679 H   0  0  0  0  0  0  0  0  0  0  0  0
   13.6582   -1.1182   12.6811 H   0  0  0  0  0  0  0  0  0  0  0  0
   14.8174   -2.3232   13.1243 H   0  0  0  0  0  0  0  0  0  0  0  0
   11.5025    1.9602   14.6467 H   0  0  0  0  0  0  0  0  0  0  0  0
    9.1059    1.6203   14.9566 H   0  0  0  0  0  0  0  0  0  0  0  0
    8.2039   -0.6875   15.2322 H   0  0  0  0  0  0  0  0  0  0  0  0
    9.7281   -2.5921   15.2021 H   0  0  0  0  0  0  0  0  0  0  0  0
   16.2779   -1.9385   14.4439 H   0  0  0  0  0  0  0  0  0  0  0  0
   15.9962   -0.9991   15.8462 H   0  0  0  0  0  0  0  0  0  0  0  0
   16.2698    1.1773   14.8202 H   0  0  0  0  0  0  0  0  0  0  0  0
   17.6773    0.1682   14.5279 H   0  0  0  0  0  0  0  0  0  0  0  0
   17.0972    0.9751   12.3692 H   0  0  0  0  0  0  0  0  0  0  0  0
   18.7931   -0.3638   12.2592 H   0  0  0  0  0  0  0  0  0  0  0  0
   22.0058   -2.7050   13.7342 H   0  0  0  0  0  0  0  0  0  0  0  0
   21.1646   -3.8141   14.8758 H   0  0  0  0  0  0  0  0  0  0  0  0
   21.8780   -2.3029   15.4654 H   0  0  0  0  0  0  0  0  0  0  0  0
  1  2  1  0
  2  3  1  0
  3  4  2  0
  4  5  1  0
  5  6  2  0
  6  7  1  0
  7  8  1  0
  8  9  2  3
  9 10  1  0
 10 11  1  0
 11 12  1  0
 12 13  2  0
 12 14  1  0
 14 15  2  0
 15 16  1  0
 16 17  2  0
 17 18  1  0
 18 19  2  0
 19 20  1  0
 20 21  1  0
 20 22  1  0
 20 23  1  0
 11 24  1  0
 24 25  1  0
 25 26  1  0
  6 27  1  0
 27 28  2  0
 28 29  1  0
 29 30  1  0
 29 31  2  0
 29 32  2  0
 28  3  1  0
 26  9  1  0
 19 14  1  0
  1 33  1  0
  1 34  1  0
  1 35  1  0
  2 36  1  0
  4 37  1  0
  5 38  1  0
  7 39  1  0
  7 40  1  0
 10 41  1  0
 10 42  1  0
 15 43  1  0
 16 44  1  0
 17 45  1  0
 18 46  1  0
 24 47  1  0
 24 48  1  0
 25 49  1  0
 25 50  1  0
 26 51  1  0
 27 52  1  0
 30 53  1  0
 30 54  1  0
 30 55  1  0
M  END
>  <Energy>  (461) 
201.621528603542

>  <compound_id>  (461) 
1783

>  <target_id>  (461) 
1

>  <reference_id>  (461) 
83

>  <inspiration_ids>  (461) 
[23, 83]

>  <energy_score>  (461) 
27.32572052146702

>  <distance_score>  (461) 
3.430653995043005

>  <path>  (461) 
/opt/xchem-fragalysis-2/maxwin/BulkDock/SCRATCH/505732/C1783-P83/C1783-P83.minimised.mol

>  <scratch_subdir>  (461) 
/opt/xchem-fragalysis-2/maxwin/BulkDock/SCRATCH/505732/C1783-P83

>  <fragmenstein_runtime>  (461) 
15.861075401306152

>  <fragmenstein_outcome>  (461) 
too moved

>  <fragmenstein_mode>  (461) 
expansion

>  <fragmenstein_error>  (461) 


$$$$
C1785-P23
     RDKit          3D

 35 36  0  0  0  0  0  0  0  0999 V2000
   15.4686    0.3453   14.4668 N   0  0  0  0  0  0  0  0  0  0  0  0
   14.5510   -1.0408   14.2795 S   0  0  0  0  0  0  0  0  0  0  0  0
   13.4461   -0.9606   15.2053 O   0  0  0  0  0  0  0  0  0  0  0  0
   14.2960   -1.1367   12.8597 O   0  0  0  0  0  0  0  0  0  0  0  0
   15.7012   -2.4181   14.7881 C   0  0  0  0  0  0  0  0  0  0  0  0
   15.1703   -3.1623   16.0448 C   0  0  0  0  0  0  0  0  0  0  0  0
   15.4408   -2.4638   17.3603 N   0  0  0  0  0  0  0  0  0  0  0  0
   15.6429   -1.0217   17.6705 C   0  0  0  0  0  0  0  0  0  0  0  0
   15.7193   -0.0949   16.9557 O   0  0  0  0  0  0  0  0  0  0  0  0
   15.6499   -0.6986   19.1348 C   0  0  0  0  0  0  0  0  0  0  0  0
   15.9548    0.6613   19.4008 C   0  0  0  0  0  0  0  0  0  0  0  0
   15.8330    1.2068   20.6693 C   0  0  0  0  0  0  0  0  0  0  0  0
   15.4071    0.3996   21.7062 C   0  0  0  0  0  0  0  0  0  0  0  0
   15.1283   -0.9483   21.4730 C   0  0  0  0  0  0  0  0  0  0  0  0
   15.2432   -1.5339   20.1923 C   0  0  0  0  0  0  0  0  0  0  0  0
   14.9337   -3.0100   20.0844 C   0  0  0  0  0  0  0  0  0  0  0  0
   14.5279   -3.5647   21.2666 F   0  0  0  0  0  0  0  0  0  0  0  0
   13.9545   -3.3345   19.1973 F   0  0  0  0  0  0  0  0  0  0  0  0
   16.0303   -3.7463   19.7365 F   0  0  0  0  0  0  0  0  0  0  0  0
   16.7885   -3.1874   17.1650 C   0  0  0  0  0  0  0  0  0  0  0  0
   17.7128   -2.9448   15.9428 C   0  0  0  0  0  0  0  0  0  0  0  0
   18.8342   -3.4278   15.8441 O   0  0  0  0  0  0  0  0  0  0  0  0
   17.1368   -2.1792   14.9467 N   0  0  0  0  0  0  0  0  0  0  0  0
   15.6273    0.5316   15.4690 H   0  0  0  0  0  0  0  0  0  0  0  0
   16.3058    0.3822   13.8941 H   0  0  0  0  0  0  0  0  0  0  0  0
   15.6449   -3.0883   13.9283 H   0  0  0  0  0  0  0  0  0  0  0  0
   15.3372   -4.2547   16.0230 H   0  0  0  0  0  0  0  0  0  0  0  0
   14.0730   -3.1356   15.9982 H   0  0  0  0  0  0  0  0  0  0  0  0
   16.2659    1.3344   18.6016 H   0  0  0  0  0  0  0  0  0  0  0  0
   16.0555    2.2561   20.8424 H   0  0  0  0  0  0  0  0  0  0  0  0
   15.2919    0.8087   22.7076 H   0  0  0  0  0  0  0  0  0  0  0  0
   14.7899   -1.5493   22.3202 H   0  0  0  0  0  0  0  0  0  0  0  0
   16.7026   -4.2645   17.3844 H   0  0  0  0  0  0  0  0  0  0  0  0
   17.4029   -2.8043   17.9950 H   0  0  0  0  0  0  0  0  0  0  0  0
   17.6993   -2.1045   14.1071 H   0  0  0  0  0  0  0  0  0  0  0  0
  1  2  1  0
  2  3  2  0
  2  4  2  0
  2  5  1  0
  5  6  1  0
  6  7  1  0
  7  8  1  0
  8  9  2  0
  8 10  1  0
 10 11  2  0
 11 12  1  0
 12 13  2  0
 13 14  1  0
 14 15  2  0
 15 16  1  0
 16 17  1  0
 16 18  1  0
 16 19  1  0
  7 20  1  0
 20 21  1  0
 21 22  2  0
 21 23  1  0
 23  5  1  0
 15 10  1  0
  1 24  1  0
  1 25  1  0
  5 26  1  0
  6 27  1  0
  6 28  1  0
 11 29  1  0
 12 30  1  0
 13 31  1  0
 14 32  1  0
 20 33  1  0
 20 34  1  0
 23 35  1  0
M  END
>  <Energy>  (462) 
119.85957597949792

>  <compound_id>  (462) 
1785

>  <target_id>  (462) 
1

>  <reference_id>  (462) 
23

>  <inspiration_ids>  (462) 
[23, 97]

>  <energy_score>  (462) 
35.12642048300834

>  <distance_score>  (462) 
1.487010395878418

>  <path>  (462) 
/opt/xchem-fragalysis-2/maxwin/BulkDock/SCRATCH/505732/C1785-P23/C1785-P23.minimised.mol

>  <scratch_subdir>  (462) 
/opt/xchem-fragalysis-2/maxwin/BulkDock/SCRATCH/505732/C1785-P23

>  <fragmenstein_runtime>  (462) 
9.89720344543457

>  <fragmenstein_outcome>  (462) 
too moved

>  <fragmenstein_mode>  (462) 
expansion

>  <fragmenstein_error>  (462) 


$$$$
C1785-P97
     RDKit          3D

 35 36  0  0  0  0  0  0  0  0999 V2000
   15.4751    0.3676   14.4934 N   0  0  0  0  0  0  0  0  0  0  0  0
   14.4662   -0.9731   14.4137 S   0  0  0  0  0  0  0  0  0  0  0  0
   13.4584   -0.7951   15.4357 O   0  0  0  0  0  0  0  0  0  0  0  0
   14.0608   -1.0442   13.0274 O   0  0  0  0  0  0  0  0  0  0  0  0
   15.6095   -2.3925   14.8284 C   0  0  0  0  0  0  0  0  0  0  0  0
   15.0911   -3.1559   16.0749 C   0  0  0  0  0  0  0  0  0  0  0  0
   15.3940   -2.4772   17.3975 N   0  0  0  0  0  0  0  0  0  0  0  0
   15.6271   -1.0385   17.7229 C   0  0  0  0  0  0  0  0  0  0  0  0
   15.7096   -0.1033   17.0172 O   0  0  0  0  0  0  0  0  0  0  0  0
   15.6616   -0.7325   19.1895 C   0  0  0  0  0  0  0  0  0  0  0  0
   15.9989    0.6179   19.4647 C   0  0  0  0  0  0  0  0  0  0  0  0
   15.8960    1.1548   20.7383 C   0  0  0  0  0  0  0  0  0  0  0  0
   15.4603    0.3469   21.7709 C   0  0  0  0  0  0  0  0  0  0  0  0
   15.1555   -0.9942   21.5287 C   0  0  0  0  0  0  0  0  0  0  0  0
   15.2504   -1.5708   20.2424 C   0  0  0  0  0  0  0  0  0  0  0  0
   14.9163   -3.0410   20.1234 C   0  0  0  0  0  0  0  0  0  0  0  0
   14.5239   -3.6042   21.3061 F   0  0  0  0  0  0  0  0  0  0  0  0
   13.9201   -3.3445   19.2478 F   0  0  0  0  0  0  0  0  0  0  0  0
   15.9970   -3.7891   19.7515 F   0  0  0  0  0  0  0  0  0  0  0  0
   16.7266   -3.2225   17.1733 C   0  0  0  0  0  0  0  0  0  0  0  0
   17.6433   -2.9530   15.9524 C   0  0  0  0  0  0  0  0  0  0  0  0
   18.7700   -3.4220   15.8455 O   0  0  0  0  0  0  0  0  0  0  0  0
   17.0496   -2.1783   14.9779 N   0  0  0  0  0  0  0  0  0  0  0  0
   15.0638    1.1516   13.9891 H   0  0  0  0  0  0  0  0  0  0  0  0
   15.6371    0.5820   15.4918 H   0  0  0  0  0  0  0  0  0  0  0  0
   15.5307   -3.0256   13.9423 H   0  0  0  0  0  0  0  0  0  0  0  0
   15.2438   -4.2494   16.0311 H   0  0  0  0  0  0  0  0  0  0  0  0
   13.9930   -3.1136   16.0427 H   0  0  0  0  0  0  0  0  0  0  0  0
   16.3206    1.2894   18.6688 H   0  0  0  0  0  0  0  0  0  0  0  0
   16.1425    2.1974   20.9196 H   0  0  0  0  0  0  0  0  0  0  0  0
   15.3594    0.7494   22.7766 H   0  0  0  0  0  0  0  0  0  0  0  0
   14.8126   -1.5979   22.3721 H   0  0  0  0  0  0  0  0  0  0  0  0
   16.6276   -4.3034   17.3659 H   0  0  0  0  0  0  0  0  0  0  0  0
   17.3528   -2.8708   18.0085 H   0  0  0  0  0  0  0  0  0  0  0  0
   17.5977   -2.0101   14.1429 H   0  0  0  0  0  0  0  0  0  0  0  0
  1  2  1  0
  2  3  2  0
  2  4  2  0
  2  5  1  0
  5  6  1  0
  6  7  1  0
  7  8  1  0
  8  9  2  0
  8 10  1  0
 10 11  2  0
 11 12  1  0
 12 13  2  0
 13 14  1  0
 14 15  2  0
 15 16  1  0
 16 17  1  0
 16 18  1  0
 16 19  1  0
  7 20  1  0
 20 21  1  0
 21 22  2  0
 21 23  1  0
 23  5  1  0
 15 10  1  0
  1 24  1  0
  1 25  1  0
  5 26  1  0
  6 27  1  0
  6 28  1  0
 11 29  1  0
 12 30  1  0
 13 31  1  0
 14 32  1  0
 20 33  1  0
 20 34  1  0
 23 35  1  0
M  END
>  <Energy>  (463) 
119.49096572010831

>  <compound_id>  (463) 
1785

>  <target_id>  (463) 
1

>  <reference_id>  (463) 
97

>  <inspiration_ids>  (463) 
[23, 97]

>  <energy_score>  (463) 
34.75781022361928

>  <distance_score>  (463) 
1.4882147138644952

>  <path>  (463) 
/opt/xchem-fragalysis-2/maxwin/BulkDock/SCRATCH/505732/C1785-P97/C1785-P97.minimised.mol

>  <scratch_subdir>  (463) 
/opt/xchem-fragalysis-2/maxwin/BulkDock/SCRATCH/505732/C1785-P97

>  <fragmenstein_runtime>  (463) 
9.804006814956665

>  <fragmenstein_outcome>  (463) 
too moved

>  <fragmenstein_mode>  (463) 
expansion

>  <fragmenstein_error>  (463) 


$$$$
C1788-P23
     RDKit          3D

 40 43  0  0  0  0  0  0  0  0999 V2000
   14.7255   -1.7876   20.9980 O   0  0  0  0  0  0  0  0  0  0  0  0
   14.9982   -0.8397   20.2676 C   0  0  0  0  0  0  0  0  0  0  0  0
   14.9961    0.4401   20.7508 N   0  0  0  0  0  0  0  0  0  0  0  0
   15.8204    1.4315   20.1057 C   0  0  0  0  0  0  0  0  0  0  0  0
   15.6084    1.4606   18.5897 C   0  0  0  0  0  0  0  0  0  0  0  0
   15.3889    0.1464   17.9592 N   0  0  0  0  0  0  0  0  0  0  0  0
   15.0011    0.1914   16.6057 C   0  0  0  0  0  0  0  0  0  0  0  0
   14.9743    1.2838   16.0298 O   0  0  0  0  0  0  0  0  0  0  0  0
   14.4116   -0.9999   15.8790 C   0  0  0  0  0  0  0  0  0  0  0  0
   13.3114   -0.6650   15.0486 C   0  0  0  0  0  0  0  0  0  0  0  0
   12.2888   -1.5776   14.7872 C   0  0  0  0  0  0  0  0  0  0  0  0
   12.3432   -2.8219   15.3792 C   0  0  0  0  0  0  0  0  0  0  0  0
   13.5167   -3.2140   16.0235 C   0  0  0  0  0  0  0  0  0  0  0  0
   14.6340   -2.3585   16.1513 C   0  0  0  0  0  0  0  0  0  0  0  0
   15.9942   -3.0402   16.4063 C   0  0  0  0  0  0  0  0  0  0  0  0
   16.3865   -3.8246   15.3336 F   0  0  0  0  0  0  0  0  0  0  0  0
   15.9518   -4.0371   17.5793 C   0  0  0  0  0  0  0  0  0  0  0  0
   17.2575   -3.8176   18.3119 C   0  0  0  0  0  0  0  0  0  0  0  0
   17.6186   -2.4212   18.0629 N   0  0  0  0  0  0  0  0  0  0  0  0
   16.9988   -1.4821   19.0020 C   0  0  0  0  0  0  0  0  0  0  0  0
   15.5190   -1.0398   18.8401 C   0  0  0  0  0  0  0  0  0  0  0  0
   17.2328   -2.1748   16.6768 C   0  0  0  0  0  0  0  0  0  0  0  0
   14.7973    0.5008   21.7441 H   0  0  0  0  0  0  0  0  0  0  0  0
   15.6003    2.4082   20.5473 H   0  0  0  0  0  0  0  0  0  0  0  0
   16.8629    1.1874   20.3375 H   0  0  0  0  0  0  0  0  0  0  0  0
   16.4581    1.9477   18.0973 H   0  0  0  0  0  0  0  0  0  0  0  0
   14.7211    2.0710   18.3791 H   0  0  0  0  0  0  0  0  0  0  0  0
   13.1775    0.3636   14.7091 H   0  0  0  0  0  0  0  0  0  0  0  0
   11.4259   -1.2795   14.1960 H   0  0  0  0  0  0  0  0  0  0  0  0
   11.5234   -3.5236   15.2469 H   0  0  0  0  0  0  0  0  0  0  0  0
   13.5894   -4.2593   16.3266 H   0  0  0  0  0  0  0  0  0  0  0  0
   15.1150   -3.8680   18.2647 H   0  0  0  0  0  0  0  0  0  0  0  0
   15.8794   -5.0710   17.2257 H   0  0  0  0  0  0  0  0  0  0  0  0
   17.1902   -4.0718   19.3752 H   0  0  0  0  0  0  0  0  0  0  0  0
   18.0346   -4.4635   17.8836 H   0  0  0  0  0  0  0  0  0  0  0  0
   17.6255   -0.5806   18.9640 H   0  0  0  0  0  0  0  0  0  0  0  0
   17.1757   -1.8716   20.0141 H   0  0  0  0  0  0  0  0  0  0  0  0
   14.8703   -1.8207   18.4656 H   0  0  0  0  0  0  0  0  0  0  0  0
   18.0579   -2.5335   16.0453 H   0  0  0  0  0  0  0  0  0  0  0  0
   17.1496   -1.1167   16.4257 H   0  0  0  0  0  0  0  0  0  0  0  0
  1  2  2  0
  2  3  1  0
  3  4  1  0
  4  5  1  0
  5  6  1  0
  6  7  1  0
  7  8  2  0
  7  9  1  0
  9 10  2  0
 10 11  1  0
 11 12  2  0
 12 13  1  0
 13 14  2  0
 14 15  1  0
 15 16  1  0
 15 17  1  0
 17 18  1  0
 18 19  1  0
 19 20  1  0
 20 21  1  0
 19 22  1  0
 21  2  1  0
 21  6  1  0
 14  9  1  0
 22 15  1  0
  3 23  1  0
  4 24  1  0
  4 25  1  0
  5 26  1  0
  5 27  1  0
 10 28  1  0
 11 29  1  0
 12 30  1  0
 13 31  1  0
 17 32  1  0
 17 33  1  0
 18 34  1  0
 18 35  1  0
 20 36  1  0
 20 37  1  0
 21 38  1  0
 22 39  1  0
 22 40  1  0
M  END
>  <Energy>  (464) 
170.61630791973755

>  <compound_id>  (464) 
1788

>  <target_id>  (464) 
1

>  <reference_id>  (464) 
23

>  <inspiration_ids>  (464) 
[23, 106]

>  <energy_score>  (464) 
-100.34502072590328

>  <distance_score>  (464) 
2.0547159749484742

>  <path>  (464) 
/opt/xchem-fragalysis-2/maxwin/BulkDock/SCRATCH/505732/C1788-P23/C1788-P23.minimised.mol

>  <scratch_subdir>  (464) 
/opt/xchem-fragalysis-2/maxwin/BulkDock/SCRATCH/505732/C1788-P23

>  <fragmenstein_runtime>  (464) 
63.4802143573761

>  <fragmenstein_outcome>  (464) 
too moved

>  <fragmenstein_mode>  (464) 
expansion

>  <fragmenstein_error>  (464) 


$$$$
C1788-P106
     RDKit          3D

 40 43  0  0  0  0  0  0  0  0999 V2000
   14.7365   -1.6922   21.3572 O   0  0  0  0  0  0  0  0  0  0  0  0
   14.9458   -0.7728   20.5675 C   0  0  0  0  0  0  0  0  0  0  0  0
   14.9569    0.5181   21.0199 N   0  0  0  0  0  0  0  0  0  0  0  0
   14.9874    1.6651   20.1337 C   0  0  0  0  0  0  0  0  0  0  0  0
   15.7962    1.3882   18.8693 C   0  0  0  0  0  0  0  0  0  0  0  0
   15.2959    0.1596   18.2415 N   0  0  0  0  0  0  0  0  0  0  0  0
   14.5454    0.2985   17.0727 C   0  0  0  0  0  0  0  0  0  0  0  0
   14.3739    1.4072   16.5597 O   0  0  0  0  0  0  0  0  0  0  0  0
   13.8259   -0.8630   16.4595 C   0  0  0  0  0  0  0  0  0  0  0  0
   12.5125   -0.5233   16.0299 C   0  0  0  0  0  0  0  0  0  0  0  0
   11.6038   -1.4783   15.5853 C   0  0  0  0  0  0  0  0  0  0  0  0
   11.9699   -2.8048   15.6246 C   0  0  0  0  0  0  0  0  0  0  0  0
   13.2690   -3.1458   15.9970 C   0  0  0  0  0  0  0  0  0  0  0  0
   14.2677   -2.1977   16.3236 C   0  0  0  0  0  0  0  0  0  0  0  0
   15.6868   -2.7994   16.4421 C   0  0  0  0  0  0  0  0  0  0  0  0
   16.0696   -3.4667   15.2846 F   0  0  0  0  0  0  0  0  0  0  0  0
   15.7341   -3.9172   17.5052 C   0  0  0  0  0  0  0  0  0  0  0  0
   17.1094   -3.7898   18.1185 C   0  0  0  0  0  0  0  0  0  0  0  0
   17.4054   -2.3560   18.0723 N   0  0  0  0  0  0  0  0  0  0  0  0
   16.8081   -1.6214   19.1975 C   0  0  0  0  0  0  0  0  0  0  0  0
   15.3698   -1.0388   19.1114 C   0  0  0  0  0  0  0  0  0  0  0  0
   16.9118   -1.9282   16.7611 C   0  0  0  0  0  0  0  0  0  0  0  0
   14.6083    0.6236   21.9663 H   0  0  0  0  0  0  0  0  0  0  0  0
   13.9497    1.9033   19.8790 H   0  0  0  0  0  0  0  0  0  0  0  0
   15.4079    2.5080   20.6899 H   0  0  0  0  0  0  0  0  0  0  0  0
   16.8535    1.2441   19.1130 H   0  0  0  0  0  0  0  0  0  0  0  0
   15.7410    2.2478   18.1947 H   0  0  0  0  0  0  0  0  0  0  0  0
   12.1916    0.5189   16.0510 H   0  0  0  0  0  0  0  0  0  0  0  0
   10.6201   -1.1874   15.2255 H   0  0  0  0  0  0  0  0  0  0  0  0
   11.2673   -3.5762   15.3175 H   0  0  0  0  0  0  0  0  0  0  0  0
   13.5211   -4.2058   15.9860 H   0  0  0  0  0  0  0  0  0  0  0  0
   14.9679   -3.8066   18.2798 H   0  0  0  0  0  0  0  0  0  0  0  0
   15.6107   -4.9060   17.0544 H   0  0  0  0  0  0  0  0  0  0  0  0
   17.1652   -4.2224   19.1232 H   0  0  0  0  0  0  0  0  0  0  0  0
   17.8452   -4.3258   17.5054 H   0  0  0  0  0  0  0  0  0  0  0  0
   16.9045   -2.2429   20.0985 H   0  0  0  0  0  0  0  0  0  0  0  0
   17.4989   -0.7929   19.3981 H   0  0  0  0  0  0  0  0  0  0  0  0
   14.6465   -1.7765   18.7740 H   0  0  0  0  0  0  0  0  0  0  0  0
   17.7039   -2.1684   16.0370 H   0  0  0  0  0  0  0  0  0  0  0  0
   16.7899   -0.8522   16.6469 H   0  0  0  0  0  0  0  0  0  0  0  0
  1  2  2  0
  2  3  1  0
  3  4  1  0
  4  5  1  0
  5  6  1  0
  6  7  1  0
  7  8  2  0
  7  9  1  0
  9 10  2  0
 10 11  1  0
 11 12  2  0
 12 13  1  0
 13 14  2  0
 14 15  1  0
 15 16  1  0
 15 17  1  0
 17 18  1  0
 18 19  1  0
 19 20  1  0
 20 21  1  0
 19 22  1  0
 21  2  1  0
 21  6  1  0
 14  9  1  0
 22 15  1  0
  3 23  1  0
  4 24  1  0
  4 25  1  0
  5 26  1  0
  5 27  1  0
 10 28  1  0
 11 29  1  0
 12 30  1  0
 13 31  1  0
 17 32  1  0
 17 33  1  0
 18 34  1  0
 18 35  1  0
 20 36  1  0
 20 37  1  0
 21 38  1  0
 22 39  1  0
 22 40  1  0
M  END
>  <Energy>  (465) 
154.47569527260006

>  <compound_id>  (465) 
1788

>  <target_id>  (465) 
1

>  <reference_id>  (465) 
106

>  <inspiration_ids>  (465) 
[23, 106]

>  <energy_score>  (465) 
-116.48563337304029

>  <distance_score>  (465) 
2.045510026143883

>  <path>  (465) 
/opt/xchem-fragalysis-2/maxwin/BulkDock/SCRATCH/505732/C1788-P106/C1788-P106.minimised.mol

>  <scratch_subdir>  (465) 
/opt/xchem-fragalysis-2/maxwin/BulkDock/SCRATCH/505732/C1788-P106

>  <fragmenstein_runtime>  (465) 
64.76453828811646

>  <fragmenstein_outcome>  (465) 
too moved

>  <fragmenstein_mode>  (465) 
expansion

>  <fragmenstein_error>  (465) 


$$$$
C1789-P23
     RDKit          3D

 64 67  0  0  0  0  0  0  0  0999 V2000
    8.7854   -0.0903   13.8745 C   0  0  0  0  0  0  0  0  0  0  0  0
    8.8569   -1.5884   14.8603 S   0  0  0  0  0  0  0  0  0  0  0  0
    8.1503   -2.6995   14.2938 O   0  0  0  0  0  0  0  0  0  0  0  0
    8.1612   -1.1090   16.0235 O   0  0  0  0  0  0  0  0  0  0  0  0
   10.7068   -1.8531   14.9839 C   0  0  0  0  0  0  0  0  0  0  0  0
   11.5773   -0.9435   14.3509 C   0  0  0  0  0  0  0  0  0  0  0  0
   12.9639   -1.0694   14.3404 C   0  0  0  0  0  0  0  0  0  0  0  0
   13.5882   -2.1238   14.9651 C   0  0  0  0  0  0  0  0  0  0  0  0
   14.9557   -2.3545   14.8155 N   0  0  0  0  0  0  0  0  0  0  0  0
   15.6022   -1.9789   13.5381 C   0  0  0  0  0  0  0  0  0  0  0  0
   16.1707   -0.5346   13.5242 C   0  0  0  0  0  0  0  0  0  0  0  0
   16.3797    0.0853   14.8435 N   0  0  0  0  0  0  0  0  0  0  0  0
   16.8239   -0.9521   15.7890 C   0  0  0  0  0  0  0  0  0  0  0  0
   15.7989   -2.1153   16.0099 C   0  0  0  0  0  0  0  0  0  0  0  0
   16.5696   -3.4109   16.3633 C   0  0  0  0  0  0  0  0  0  0  0  0
   17.2592   -3.1844   17.6282 N   0  0  0  0  0  0  0  0  0  0  0  0
   17.4168   -4.1568   18.4459 C   0  0  0  0  0  0  0  0  0  0  0  0
   17.7343   -3.7660   19.9116 C   0  0  0  0  0  0  0  0  0  0  0  0
   16.5036   -3.9285   20.8106 N   0  0  0  0  0  0  0  0  0  0  0  0
   15.3961   -3.2271   20.2538 C   0  0  0  0  0  0  0  0  0  0  0  0
   14.5397   -3.5940   19.4951 O   0  0  0  0  0  0  0  0  0  0  0  0
   15.3198   -1.8323   20.7448 C   0  0  0  0  0  0  0  0  0  0  0  0
   15.6028   -0.7927   19.8482 C   0  0  0  0  0  0  0  0  0  0  0  0
   15.5349    0.5330   20.2695 C   0  0  0  0  0  0  0  0  0  0  0  0
   15.1773    0.8187   21.5845 C   0  0  0  0  0  0  0  0  0  0  0  0
   14.8797   -0.2193   22.4733 C   0  0  0  0  0  0  0  0  0  0  0  0
   14.9340   -1.5620   22.0607 C   0  0  0  0  0  0  0  0  0  0  0  0
   14.5743   -2.6777   23.0061 C   0  0  0  0  0  0  0  0  0  0  0  0
   13.8088   -2.2658   24.0586 F   0  0  0  0  0  0  0  0  0  0  0  0
   15.6828   -3.2340   23.5798 F   0  0  0  0  0  0  0  0  0  0  0  0
   13.8970   -3.7108   22.4318 F   0  0  0  0  0  0  0  0  0  0  0  0
   16.8986   -5.3952   20.7182 C   0  0  0  0  0  0  0  0  0  0  0  0
   16.5623   -6.1473   19.4003 C   0  0  0  0  0  0  0  0  0  0  0  0
   17.1991   -5.4970   18.2653 N   0  0  0  0  0  0  0  0  0  0  0  0
   12.7461   -3.0168   15.6532 C   0  0  0  0  0  0  0  0  0  0  0  0
   11.3263   -2.9322   15.5961 C   0  0  0  0  0  0  0  0  0  0  0  0
    7.9759   -0.2308   13.1617 H   0  0  0  0  0  0  0  0  0  0  0  0
    9.6355    0.2231   13.2891 H   0  0  0  0  0  0  0  0  0  0  0  0
    8.6652    0.7195   14.5710 H   0  0  0  0  0  0  0  0  0  0  0  0
   11.2678   -0.0489   13.8388 H   0  0  0  0  0  0  0  0  0  0  0  0
   13.5330   -0.2999   13.8319 H   0  0  0  0  0  0  0  0  0  0  0  0
   16.4425   -2.6688   13.3903 H   0  0  0  0  0  0  0  0  0  0  0  0
   14.9343   -2.1406   12.6825 H   0  0  0  0  0  0  0  0  0  0  0  0
   15.5095    0.1176   12.9439 H   0  0  0  0  0  0  0  0  0  0  0  0
   17.1215   -0.5486   12.9761 H   0  0  0  0  0  0  0  0  0  0  0  0
   17.0900    0.8113   14.7711 H   0  0  0  0  0  0  0  0  0  0  0  0
   17.0308   -0.4757   16.7541 H   0  0  0  0  0  0  0  0  0  0  0  0
   17.7858   -1.3487   15.4373 H   0  0  0  0  0  0  0  0  0  0  0  0
   15.1571   -1.8392   16.8567 H   0  0  0  0  0  0  0  0  0  0  0  0
   17.2915   -3.6669   15.5795 H   0  0  0  0  0  0  0  0  0  0  0  0
   15.8412   -4.2277   16.4269 H   0  0  0  0  0  0  0  0  0  0  0  0
   18.6894   -4.1730   20.2768 H   0  0  0  0  0  0  0  0  0  0  0  0
   17.9254   -2.6820   19.9034 H   0  0  0  0  0  0  0  0  0  0  0  0
   15.8874   -1.0203   18.8274 H   0  0  0  0  0  0  0  0  0  0  0  0
   15.7608    1.3385   19.5756 H   0  0  0  0  0  0  0  0  0  0  0  0
   15.1194    1.8514   21.9210 H   0  0  0  0  0  0  0  0  0  0  0  0
   14.5776    0.0226   23.4919 H   0  0  0  0  0  0  0  0  0  0  0  0
   16.2187   -5.8484   21.4564 H   0  0  0  0  0  0  0  0  0  0  0  0
   17.8837   -5.6417   21.1468 H   0  0  0  0  0  0  0  0  0  0  0  0
   15.4779   -6.1401   19.2560 H   0  0  0  0  0  0  0  0  0  0  0  0
   16.8875   -7.1903   19.4649 H   0  0  0  0  0  0  0  0  0  0  0  0
   16.8012   -5.7591   17.3723 H   0  0  0  0  0  0  0  0  0  0  0  0
   13.1900   -3.8696   16.1671 H   0  0  0  0  0  0  0  0  0  0  0  0
   10.7802   -3.7629   16.0127 H   0  0  0  0  0  0  0  0  0  0  0  0
  1  2  1  0
  2  3  2  0
  2  4  2  0
  2  5  1  0
  5  6  2  0
  6  7  1  0
  7  8  2  0
  8  9  1  0
  9 10  1  0
 10 11  1  0
 11 12  1  0
 12 13  1  0
 13 14  1  0
 14 15  1  0
 15 16  1  0
 16 17  2  3
 17 18  1  0
 18 19  1  0
 19 20  1  0
 20 21  2  0
 20 22  1  0
 22 23  2  0
 23 24  1  0
 24 25  2  0
 25 26  1  0
 26 27  2  0
 27 28  1  0
 28 29  1  0
 28 30  1  0
 28 31  1  0
 19 32  1  0
 32 33  1  0
 33 34  1  0
  8 35  1  0
 35 36  2  0
 36  5  1  0
 14  9  1  0
 34 17  1  0
 27 22  1  0
  1 37  1  0
  1 38  1  0
  1 39  1  0
  6 40  1  0
  7 41  1  0
 10 42  1  0
 10 43  1  0
 11 44  1  0
 11 45  1  0
 12 46  1  0
 13 47  1  0
 13 48  1  0
 14 49  1  0
 15 50  1  0
 15 51  1  0
 18 52  1  0
 18 53  1  0
 23 54  1  0
 24 55  1  0
 25 56  1  0
 26 57  1  0
 32 58  1  0
 32 59  1  0
 33 60  1  0
 33 61  1  0
 34 62  1  0
 35 63  1  0
 36 64  1  0
M  END
>  <Energy>  (466) 
332.27809257745162

>  <compound_id>  (466) 
1789

>  <target_id>  (466) 
1

>  <reference_id>  (466) 
23

>  <inspiration_ids>  (466) 
[23, 108]

>  <energy_score>  (466) 
45.128315963416696

>  <distance_score>  (466) 
2.714061799031683

>  <path>  (466) 
/opt/xchem-fragalysis-2/maxwin/BulkDock/SCRATCH/505732/C1789-P23/C1789-P23.minimised.mol

>  <scratch_subdir>  (466) 
/opt/xchem-fragalysis-2/maxwin/BulkDock/SCRATCH/505732/C1789-P23

>  <fragmenstein_runtime>  (466) 
47.321441888809204

>  <fragmenstein_outcome>  (466) 
too moved

>  <fragmenstein_mode>  (466) 
expansion

>  <fragmenstein_error>  (466) 


$$$$
C1789-P108
     RDKit          3D

 64 67  0  0  0  0  0  0  0  0999 V2000
   10.7315    0.5331   13.7194 C   0  0  0  0  0  0  0  0  0  0  0  0
   11.0087    0.3783   15.4607 S   0  0  0  0  0  0  0  0  0  0  0  0
   10.1474   -0.6671   15.9881 O   0  0  0  0  0  0  0  0  0  0  0  0
   10.9713    1.7137   16.0223 O   0  0  0  0  0  0  0  0  0  0  0  0
   12.6835   -0.1900   15.4642 C   0  0  0  0  0  0  0  0  0  0  0  0
   13.6973    0.7328   15.2124 C   0  0  0  0  0  0  0  0  0  0  0  0
   14.9867    0.2774   14.9289 C   0  0  0  0  0  0  0  0  0  0  0  0
   15.2859   -1.0908   14.9091 C   0  0  0  0  0  0  0  0  0  0  0  0
   16.5158   -1.6222   14.4569 N   0  0  0  0  0  0  0  0  0  0  0  0
   16.3634   -2.1267   13.0680 C   0  0  0  0  0  0  0  0  0  0  0  0
   16.3749   -0.9841   12.0174 C   0  0  0  0  0  0  0  0  0  0  0  0
   17.2896    0.1405   12.2919 N   0  0  0  0  0  0  0  0  0  0  0  0
   18.3135   -0.2628   13.2655 C   0  0  0  0  0  0  0  0  0  0  0  0
   17.7490   -0.7756   14.6308 C   0  0  0  0  0  0  0  0  0  0  0  0
   18.8598   -1.5922   15.3338 C   0  0  0  0  0  0  0  0  0  0  0  0
   18.5733   -1.7595   16.7610 N   0  0  0  0  0  0  0  0  0  0  0  0
   18.0190   -2.8481   17.1616 C   0  0  0  0  0  0  0  0  0  0  0  0
   17.7900   -2.9880   18.6888 C   0  0  0  0  0  0  0  0  0  0  0  0
   16.5152   -3.6060   19.2663 N   0  0  0  0  0  0  0  0  0  0  0  0
   15.3908   -2.8154   18.9237 C   0  0  0  0  0  0  0  0  0  0  0  0
   14.6534   -2.8754   17.9804 O   0  0  0  0  0  0  0  0  0  0  0  0
   15.1801   -1.6816   19.8536 C   0  0  0  0  0  0  0  0  0  0  0  0
   15.2069   -0.3929   19.2919 C   0  0  0  0  0  0  0  0  0  0  0  0
   15.0550    0.7255   20.1053 C   0  0  0  0  0  0  0  0  0  0  0  0
   14.8726    0.5576   21.4753 C   0  0  0  0  0  0  0  0  0  0  0  0
   14.8281   -0.7264   22.0290 C   0  0  0  0  0  0  0  0  0  0  0  0
   14.9638   -1.8692   21.2220 C   0  0  0  0  0  0  0  0  0  0  0  0
   14.8580   -3.2467   21.8163 C   0  0  0  0  0  0  0  0  0  0  0  0
   14.2074   -3.2699   23.0158 F   0  0  0  0  0  0  0  0  0  0  0  0
   16.0797   -3.7989   22.0735 F   0  0  0  0  0  0  0  0  0  0  0  0
   14.1978   -4.1428   21.0274 F   0  0  0  0  0  0  0  0  0  0  0  0
   17.0826   -4.8480   18.6171 C   0  0  0  0  0  0  0  0  0  0  0  0
   16.8763   -4.9530   17.0794 C   0  0  0  0  0  0  0  0  0  0  0  0
   17.6252   -3.9162   16.3984 N   0  0  0  0  0  0  0  0  0  0  0  0
   14.2591   -1.9819   15.2633 C   0  0  0  0  0  0  0  0  0  0  0  0
   12.9594   -1.5494   15.5364 C   0  0  0  0  0  0  0  0  0  0  0  0
    9.6606    0.5197   13.5436 H   0  0  0  0  0  0  0  0  0  0  0  0
   11.2041   -0.3077   13.2141 H   0  0  0  0  0  0  0  0  0  0  0  0
   11.1654    1.4703   13.3656 H   0  0  0  0  0  0  0  0  0  0  0  0
   13.4890    1.7995   15.1675 H   0  0  0  0  0  0  0  0  0  0  0  0
   15.7317    1.0163   14.6464 H   0  0  0  0  0  0  0  0  0  0  0  0
   17.2051   -2.8018   12.8674 H   0  0  0  0  0  0  0  0  0  0  0  0
   15.4553   -2.7248   12.9426 H   0  0  0  0  0  0  0  0  0  0  0  0
   15.3648   -0.5694   11.9214 H   0  0  0  0  0  0  0  0  0  0  0  0
   16.6219   -1.4211   11.0422 H   0  0  0  0  0  0  0  0  0  0  0  0
   17.7286    0.4509   11.4272 H   0  0  0  0  0  0  0  0  0  0  0  0
   18.9682    0.5950   13.4600 H   0  0  0  0  0  0  0  0  0  0  0  0
   18.9488   -1.0309   12.8040 H   0  0  0  0  0  0  0  0  0  0  0  0
   17.5418    0.0914   15.2692 H   0  0  0  0  0  0  0  0  0  0  0  0
   19.8064   -1.0414   15.2688 H   0  0  0  0  0  0  0  0  0  0  0  0
   19.0374   -2.5459   14.8217 H   0  0  0  0  0  0  0  0  0  0  0  0
   18.7034   -3.3593   19.1840 H   0  0  0  0  0  0  0  0  0  0  0  0
   17.7607   -1.9475   19.0503 H   0  0  0  0  0  0  0  0  0  0  0  0
   15.3571   -0.2689   18.2205 H   0  0  0  0  0  0  0  0  0  0  0  0
   15.0742    1.7229   19.6737 H   0  0  0  0  0  0  0  0  0  0  0  0
   14.7431    1.4269   22.1162 H   0  0  0  0  0  0  0  0  0  0  0  0
   14.6467   -0.8349   23.0982 H   0  0  0  0  0  0  0  0  0  0  0  0
   18.0755   -5.1712   18.9712 H   0  0  0  0  0  0  0  0  0  0  0  0
   16.4252   -5.6309   19.0257 H   0  0  0  0  0  0  0  0  0  0  0  0
   15.8158   -4.8571   16.8281 H   0  0  0  0  0  0  0  0  0  0  0  0
   17.2147   -5.9326   16.7275 H   0  0  0  0  0  0  0  0  0  0  0  0
   17.1918   -3.5989   15.5276 H   0  0  0  0  0  0  0  0  0  0  0  0
   14.4861   -3.0412   15.3388 H   0  0  0  0  0  0  0  0  0  0  0  0
   12.1890   -2.2801   15.7668 H   0  0  0  0  0  0  0  0  0  0  0  0
  1  2  1  0
  2  3  2  0
  2  4  2  0
  2  5  1  0
  5  6  2  0
  6  7  1  0
  7  8  2  0
  8  9  1  0
  9 10  1  0
 10 11  1  0
 11 12  1  0
 12 13  1  0
 13 14  1  0
 14 15  1  0
 15 16  1  0
 16 17  2  3
 17 18  1  0
 18 19  1  0
 19 20  1  0
 20 21  2  0
 20 22  1  0
 22 23  2  0
 23 24  1  0
 24 25  2  0
 25 26  1  0
 26 27  2  0
 27 28  1  0
 28 29  1  0
 28 30  1  0
 28 31  1  0
 19 32  1  0
 32 33  1  0
 33 34  1  0
  8 35  1  0
 35 36  2  0
 36  5  1  0
 14  9  1  0
 34 17  1  0
 27 22  1  0
  1 37  1  0
  1 38  1  0
  1 39  1  0
  6 40  1  0
  7 41  1  0
 10 42  1  0
 10 43  1  0
 11 44  1  0
 11 45  1  0
 12 46  1  0
 13 47  1  0
 13 48  1  0
 14 49  1  0
 15 50  1  0
 15 51  1  0
 18 52  1  0
 18 53  1  0
 23 54  1  0
 24 55  1  0
 25 56  1  0
 26 57  1  0
 32 58  1  0
 32 59  1  0
 33 60  1  0
 33 61  1  0
 34 62  1  0
 35 63  1  0
 36 64  1  0
M  END
>  <Energy>  (467) 
284.6294826272553

>  <compound_id>  (467) 
1789

>  <target_id>  (467) 
1

>  <reference_id>  (467) 
108

>  <inspiration_ids>  (467) 
[23, 108]

>  <energy_score>  (467) 
-2.5202939867802456

>  <distance_score>  (467) 
2.3199177115738947

>  <path>  (467) 
/opt/xchem-fragalysis-2/maxwin/BulkDock/SCRATCH/505732/C1789-P108/C1789-P108.minimised.mol

>  <scratch_subdir>  (467) 
/opt/xchem-fragalysis-2/maxwin/BulkDock/SCRATCH/505732/C1789-P108

>  <fragmenstein_runtime>  (467) 
46.90252614021301

>  <fragmenstein_outcome>  (467) 
too moved

>  <fragmenstein_mode>  (467) 
expansion

>  <fragmenstein_error>  (467) 


$$$$
C1790-P23
     RDKit          3D

 33 33  0  0  0  0  0  0  0  0999 V2000
   11.6226   -2.7945   15.2725 C   0  0  0  0  0  0  0  0  0  0  0  0
   12.0104   -1.8046   14.1888 C   0  0  0  0  0  0  0  0  0  0  0  0
   13.3373   -1.2864   14.3524 N   0  0  0  0  0  0  0  0  0  0  0  0
   14.3606   -1.4479   15.5353 C   0  0  0  0  0  0  0  0  0  0  0  0
   15.5935   -0.5711   15.2441 C   0  0  0  0  0  0  0  0  0  0  0  0
   14.2952   -2.1113   16.5435 N   0  0  0  0  0  0  0  0  0  0  0  0
   15.3500   -2.2676   17.7257 S   0  0  0  0  0  0  0  0  0  0  0  0
   15.8274   -0.9636   18.1344 O   0  0  0  0  0  0  0  0  0  0  0  0
   14.7379   -3.1297   18.7166 O   0  0  0  0  0  0  0  0  0  0  0  0
   16.6777   -3.1275   17.1275 N   0  0  0  0  0  0  0  0  0  0  0  0
   17.8052   -3.2565   18.0995 C   0  0  0  0  0  0  0  0  0  0  0  0
   18.6684   -4.5068   17.8185 C   0  0  0  0  0  0  0  0  0  0  0  0
   18.8705   -4.7688   16.3838 N   0  0  0  0  0  0  0  0  0  0  0  0
   17.5623   -4.9621   15.7213 C   0  0  0  0  0  0  0  0  0  0  0  0
   16.3384   -4.4284   16.4934 C   0  0  0  0  0  0  0  0  0  0  0  0
   11.5391   -2.3013   16.2393 H   0  0  0  0  0  0  0  0  0  0  0  0
   10.6532   -3.2411   15.0392 H   0  0  0  0  0  0  0  0  0  0  0  0
   12.3512   -3.5992   15.3760 H   0  0  0  0  0  0  0  0  0  0  0  0
   11.9572   -2.3089   13.2261 H   0  0  0  0  0  0  0  0  0  0  0  0
   11.3025   -0.9720   14.1769 H   0  0  0  0  0  0  0  0  0  0  0  0
   13.6787   -0.5828   13.7046 H   0  0  0  0  0  0  0  0  0  0  0  0
   16.5213   -1.1170   15.4248 H   0  0  0  0  0  0  0  0  0  0  0  0
   15.6131   -0.2479   14.1998 H   0  0  0  0  0  0  0  0  0  0  0  0
   15.5553    0.3216   15.8744 H   0  0  0  0  0  0  0  0  0  0  0  0
   17.4393   -3.3073   19.1306 H   0  0  0  0  0  0  0  0  0  0  0  0
   18.4266   -2.3590   17.9985 H   0  0  0  0  0  0  0  0  0  0  0  0
   19.6448   -4.3819   18.3002 H   0  0  0  0  0  0  0  0  0  0  0  0
   18.2136   -5.3903   18.2845 H   0  0  0  0  0  0  0  0  0  0  0  0
   19.2865   -3.9263   15.9819 H   0  0  0  0  0  0  0  0  0  0  0  0
   17.6139   -4.4646   14.7458 H   0  0  0  0  0  0  0  0  0  0  0  0
   17.4193   -6.0297   15.5198 H   0  0  0  0  0  0  0  0  0  0  0  0
   16.0338   -5.1456   17.2642 H   0  0  0  0  0  0  0  0  0  0  0  0
   15.5106   -4.3095   15.7927 H   0  0  0  0  0  0  0  0  0  0  0  0
  1  2  1  0
  2  3  1  0
  3  4  1  0
  4  5  1  0
  4  6  2  3
  6  7  1  0
  7  8  2  0
  7  9  2  0
  7 10  1  0
 10 11  1  0
 11 12  1  0
 12 13  1  0
 13 14  1  0
 14 15  1  0
 15 10  1  0
  1 16  1  0
  1 17  1  0
  1 18  1  0
  2 19  1  0
  2 20  1  0
  3 21  1  0
  5 22  1  0
  5 23  1  0
  5 24  1  0
 11 25  1  0
 11 26  1  0
 12 27  1  0
 12 28  1  0
 13 29  1  0
 14 30  1  0
 14 31  1  0
 15 32  1  0
 15 33  1  0
M  END
>  <Energy>  (468) 
-50.714672828345094

>  <compound_id>  (468) 
1790

>  <target_id>  (468) 
1

>  <reference_id>  (468) 
23

>  <inspiration_ids>  (468) 
[23, 111]

>  <energy_score>  (468) 
-16.352343342754608

>  <distance_score>  (468) 
1.262825377488012

>  <path>  (468) 
/opt/xchem-fragalysis-2/maxwin/BulkDock/SCRATCH/505732/C1790-P23/C1790-P23.minimised.mol

>  <scratch_subdir>  (468) 
/opt/xchem-fragalysis-2/maxwin/BulkDock/SCRATCH/505732/C1790-P23

>  <fragmenstein_runtime>  (468) 
52.84010052680969

>  <fragmenstein_outcome>  (468) 
too moved

>  <fragmenstein_mode>  (468) 
expansion

>  <fragmenstein_error>  (468) 


$$$$
C1790-P111
     RDKit          3D

 33 33  0  0  0  0  0  0  0  0999 V2000
   11.6090   -2.8517   15.1593 C   0  0  0  0  0  0  0  0  0  0  0  0
   11.4734   -1.3877   14.7757 C   0  0  0  0  0  0  0  0  0  0  0  0
   12.2193   -0.5464   15.6669 N   0  0  0  0  0  0  0  0  0  0  0  0
   13.5111   -0.8466   16.5226 C   0  0  0  0  0  0  0  0  0  0  0  0
   13.9326    0.4532   17.2386 C   0  0  0  0  0  0  0  0  0  0  0  0
   14.1237   -1.8795   16.6858 N   0  0  0  0  0  0  0  0  0  0  0  0
   15.3239   -2.1468   17.7087 S   0  0  0  0  0  0  0  0  0  0  0  0
   16.2648   -1.0467   17.6750 O   0  0  0  0  0  0  0  0  0  0  0  0
   14.7317   -2.5371   18.9704 O   0  0  0  0  0  0  0  0  0  0  0  0
   16.1896   -3.5095   17.1581 N   0  0  0  0  0  0  0  0  0  0  0  0
   17.2826   -3.8974   18.1043 C   0  0  0  0  0  0  0  0  0  0  0  0
   18.0348   -5.1379   17.5920 C   0  0  0  0  0  0  0  0  0  0  0  0
   18.5851   -4.9665   16.2349 N   0  0  0  0  0  0  0  0  0  0  0  0
   17.4762   -4.6220   15.3249 C   0  0  0  0  0  0  0  0  0  0  0  0
   16.7019   -3.3660   15.7634 C   0  0  0  0  0  0  0  0  0  0  0  0
   11.3654   -3.0210   16.2095 H   0  0  0  0  0  0  0  0  0  0  0  0
   10.9444   -3.4659   14.5481 H   0  0  0  0  0  0  0  0  0  0  0  0
   12.6289   -3.2029   14.9936 H   0  0  0  0  0  0  0  0  0  0  0  0
   11.8216   -1.2346   13.7502 H   0  0  0  0  0  0  0  0  0  0  0  0
   10.4212   -1.0941   14.8299 H   0  0  0  0  0  0  0  0  0  0  0  0
   12.0235    0.4485   15.6897 H   0  0  0  0  0  0  0  0  0  0  0  0
   14.8575    0.8281   16.7917 H   0  0  0  0  0  0  0  0  0  0  0  0
   13.1778    1.2362   17.1311 H   0  0  0  0  0  0  0  0  0  0  0  0
   14.0690    0.2801   18.3092 H   0  0  0  0  0  0  0  0  0  0  0  0
   16.8531   -4.1334   19.0838 H   0  0  0  0  0  0  0  0  0  0  0  0
   17.9886   -3.0666   18.2224 H   0  0  0  0  0  0  0  0  0  0  0  0
   18.8601   -5.3657   18.2756 H   0  0  0  0  0  0  0  0  0  0  0  0
   17.3698   -6.0100   17.6029 H   0  0  0  0  0  0  0  0  0  0  0  0
   19.2441   -4.1877   16.2501 H   0  0  0  0  0  0  0  0  0  0  0  0
   17.8875   -4.4609   14.3227 H   0  0  0  0  0  0  0  0  0  0  0  0
   16.7945   -5.4776   15.2556 H   0  0  0  0  0  0  0  0  0  0  0  0
   15.8610   -3.2181   15.0785 H   0  0  0  0  0  0  0  0  0  0  0  0
   17.3616   -2.4927   15.6954 H   0  0  0  0  0  0  0  0  0  0  0  0
  1  2  1  0
  2  3  1  0
  3  4  1  0
  4  5  1  0
  4  6  2  3
  6  7  1  0
  7  8  2  0
  7  9  2  0
  7 10  1  0
 10 11  1  0
 11 12  1  0
 12 13  1  0
 13 14  1  0
 14 15  1  0
 15 10  1  0
  1 16  1  0
  1 17  1  0
  1 18  1  0
  2 19  1  0
  2 20  1  0
  3 21  1  0
  5 22  1  0
  5 23  1  0
  5 24  1  0
 11 25  1  0
 11 26  1  0
 12 27  1  0
 12 28  1  0
 13 29  1  0
 14 30  1  0
 14 31  1  0
 15 32  1  0
 15 33  1  0
M  END
>  <Energy>  (469) 
-56.63164864117298

>  <compound_id>  (469) 
1790

>  <target_id>  (469) 
1

>  <reference_id>  (469) 
111

>  <inspiration_ids>  (469) 
[23, 111]

>  <energy_score>  (469) 
-22.269319155582558

>  <distance_score>  (469) 
1.512495750661433

>  <path>  (469) 
/opt/xchem-fragalysis-2/maxwin/BulkDock/SCRATCH/505732/C1790-P111/C1790-P111.minimised.mol

>  <scratch_subdir>  (469) 
/opt/xchem-fragalysis-2/maxwin/BulkDock/SCRATCH/505732/C1790-P111

>  <fragmenstein_runtime>  (469) 
51.73760771751404

>  <fragmenstein_outcome>  (469) 
too moved

>  <fragmenstein_mode>  (469) 
expansion

>  <fragmenstein_error>  (469) 


$$$$
C1791-P23
     RDKit          3D

 61 63  0  0  0  0  0  0  0  0999 V2000
   14.6919    1.0077   15.8831 C   0  0  0  0  0  0  0  0  0  0  0  0
   15.1966    2.0378   16.8989 C   0  0  0  0  0  0  0  0  0  0  0  0
   16.4090    1.5719   17.5660 N   0  0  0  0  0  0  0  0  0  0  0  0
   16.2628    0.3946   18.4345 C   0  0  0  0  0  0  0  0  0  0  0  0
   16.6895   -0.9529   17.7815 C   0  0  0  0  0  0  0  0  0  0  0  0
   18.2011   -1.0163   17.5037 C   0  0  0  0  0  0  0  0  0  0  0  0
   18.6723   -2.2163   16.6689 C   0  0  0  0  0  0  0  0  0  0  0  0
   17.8804   -2.4310   15.4439 N   0  0  0  0  0  0  0  0  0  0  0  0
   18.6872   -2.7666   14.2549 C   0  0  0  0  0  0  0  0  0  0  0  0
   19.5372   -4.0581   14.3448 C   0  0  0  0  0  0  0  0  0  0  0  0
   18.7625   -5.2860   14.1607 N   0  0  0  0  0  0  0  0  0  0  0  0
   16.7575   -3.2498   15.6367 C   0  0  0  0  0  0  0  0  0  0  0  0
   16.8422   -4.3224   16.2220 O   0  0  0  0  0  0  0  0  0  0  0  0
   15.4188   -2.7075   15.2558 C   0  0  0  0  0  0  0  0  0  0  0  0
   15.2664   -2.0339   14.0310 C   0  0  0  0  0  0  0  0  0  0  0  0
   14.0069   -1.6049   13.6000 C   0  0  0  0  0  0  0  0  0  0  0  0
   12.8816   -1.8511   14.3779 C   0  0  0  0  0  0  0  0  0  0  0  0
   13.0248   -2.4851   15.6121 C   0  0  0  0  0  0  0  0  0  0  0  0
   14.2938   -2.8880   16.0968 C   0  0  0  0  0  0  0  0  0  0  0  0
   14.3738   -3.3483   17.5423 C   0  0  0  0  0  0  0  0  0  0  0  0
   15.1619   -4.4104   17.8406 F   0  0  0  0  0  0  0  0  0  0  0  0
   13.1441   -3.7068   18.0163 F   0  0  0  0  0  0  0  0  0  0  0  0
   14.7838   -2.2143   18.3687 O   0  0  0  0  0  0  0  0  0  0  0  0
   16.2456   -2.1094   18.5806 N   0  0  0  0  0  0  0  0  0  0  0  0
   15.5595    3.3000   16.2376 N   0  0  0  0  0  0  0  0  0  0  0  0
   14.4391    3.9226   15.4850 C   0  0  0  0  0  0  0  0  0  0  0  0
   13.3137    4.4614   16.3830 C   0  0  0  0  0  0  0  0  0  0  0  0
   13.8134    5.4185   17.3245 O   0  0  0  0  0  0  0  0  0  0  0  0
   14.8861    4.8738   18.1040 C   0  0  0  0  0  0  0  0  0  0  0  0
   16.0127    4.3301   17.2108 C   0  0  0  0  0  0  0  0  0  0  0  0
   14.4376    0.0728   16.3810 H   0  0  0  0  0  0  0  0  0  0  0  0
   15.4443    0.8032   15.1137 H   0  0  0  0  0  0  0  0  0  0  0  0
   13.7733    1.3251   15.3832 H   0  0  0  0  0  0  0  0  0  0  0  0
   14.4267    2.2056   17.6548 H   0  0  0  0  0  0  0  0  0  0  0  0
   17.1253    1.4469   16.8567 H   0  0  0  0  0  0  0  0  0  0  0  0
   15.2330    0.3358   18.8087 H   0  0  0  0  0  0  0  0  0  0  0  0
   16.8898    0.5606   19.3193 H   0  0  0  0  0  0  0  0  0  0  0  0
   16.2017   -0.9730   16.8148 H   0  0  0  0  0  0  0  0  0  0  0  0
   18.5047   -0.1139   16.9598 H   0  0  0  0  0  0  0  0  0  0  0  0
   18.7588   -1.0015   18.4489 H   0  0  0  0  0  0  0  0  0  0  0  0
   18.6794   -3.1268   17.2790 H   0  0  0  0  0  0  0  0  0  0  0  0
   19.7133   -2.0164   16.3862 H   0  0  0  0  0  0  0  0  0  0  0  0
   18.0273   -2.8427   13.3848 H   0  0  0  0  0  0  0  0  0  0  0  0
   19.3502   -1.9115   14.0763 H   0  0  0  0  0  0  0  0  0  0  0  0
   20.0687   -4.1080   15.3002 H   0  0  0  0  0  0  0  0  0  0  0  0
   20.2945   -4.0276   13.5538 H   0  0  0  0  0  0  0  0  0  0  0  0
   17.9824   -5.2821   14.8335 H   0  0  0  0  0  0  0  0  0  0  0  0
   19.3329   -6.0860   14.4339 H   0  0  0  0  0  0  0  0  0  0  0  0
   16.1143   -1.8665   13.3754 H   0  0  0  0  0  0  0  0  0  0  0  0
   13.9043   -1.1067   12.6388 H   0  0  0  0  0  0  0  0  0  0  0  0
   11.8965   -1.5473   14.0259 H   0  0  0  0  0  0  0  0  0  0  0  0
   12.1316   -2.6552   16.2121 H   0  0  0  0  0  0  0  0  0  0  0  0
   16.6030   -3.0007   18.2120 H   0  0  0  0  0  0  0  0  0  0  0  0
   14.8592    4.7666   14.9205 H   0  0  0  0  0  0  0  0  0  0  0  0
   14.0348    3.2544   14.7198 H   0  0  0  0  0  0  0  0  0  0  0  0
   12.5664    4.9715   15.7666 H   0  0  0  0  0  0  0  0  0  0  0  0
   12.7980    3.6609   16.9229 H   0  0  0  0  0  0  0  0  0  0  0  0
   15.2760    5.6851   18.7275 H   0  0  0  0  0  0  0  0  0  0  0  0
   14.4877    4.1107   18.7811 H   0  0  0  0  0  0  0  0  0  0  0  0
   16.8438    3.9763   17.8306 H   0  0  0  0  0  0  0  0  0  0  0  0
   16.4272    5.1659   16.6306 H   0  0  0  0  0  0  0  0  0  0  0  0
  1  2  1  0
  2  3  1  0
  3  4  1  0
  4  5  1  0
  5  6  1  0
  6  7  1  0
  7  8  1  0
  8  9  1  0
  9 10  1  0
 10 11  1  0
  8 12  1  0
 12 13  2  0
 12 14  1  0
 14 15  2  0
 15 16  1  0
 16 17  2  0
 17 18  1  0
 18 19  2  0
 19 20  1  0
 20 21  1  0
 20 22  1  0
 20 23  1  0
 23 24  1  0
  2 25  1  0
 25 26  1  0
 26 27  1  0
 27 28  1  0
 28 29  1  0
 29 30  1  0
 24  5  1  0
 30 25  1  0
 19 14  1  0
  1 31  1  0
  1 32  1  0
  1 33  1  0
  2 34  1  0
  3 35  1  0
  4 36  1  0
  4 37  1  0
  5 38  1  0
  6 39  1  0
  6 40  1  0
  7 41  1  0
  7 42  1  0
  9 43  1  0
  9 44  1  0
 10 45  1  0
 10 46  1  0
 11 47  1  0
 11 48  1  0
 15 49  1  0
 16 50  1  0
 17 51  1  0
 18 52  1  0
 24 53  1  0
 26 54  1  0
 26 55  1  0
 27 56  1  0
 27 57  1  0
 29 58  1  0
 29 59  1  0
 30 60  1  0
 30 61  1  0
M  END
>  <Energy>  (470) 
159.72370263604054

>  <compound_id>  (470) 
1791

>  <target_id>  (470) 
1

>  <reference_id>  (470) 
23

>  <inspiration_ids>  (470) 
[23, 113]

>  <energy_score>  (470) 
-107.09404587411834

>  <distance_score>  (470) 
2.9553145207564535

>  <path>  (470) 
/opt/xchem-fragalysis-2/maxwin/BulkDock/SCRATCH/505732/C1791-P23/C1791-P23.minimised.mol

>  <scratch_subdir>  (470) 
/opt/xchem-fragalysis-2/maxwin/BulkDock/SCRATCH/505732/C1791-P23

>  <fragmenstein_runtime>  (470) 
64.67480230331421

>  <fragmenstein_outcome>  (470) 
too moved

>  <fragmenstein_mode>  (470) 
expansion

>  <fragmenstein_error>  (470) 


$$$$
C1791-P113
     RDKit          3D

 61 63  0  0  0  0  0  0  0  0999 V2000
   13.6061    2.9339   18.8481 C   0  0  0  0  0  0  0  0  0  0  0  0
   15.1100    3.2090   18.7385 C   0  0  0  0  0  0  0  0  0  0  0  0
   15.8455    2.3961   19.7041 N   0  0  0  0  0  0  0  0  0  0  0  0
   16.3055    1.0338   19.3950 C   0  0  0  0  0  0  0  0  0  0  0  0
   15.2949   -0.0198   18.8510 C   0  0  0  0  0  0  0  0  0  0  0  0
   15.0540    0.1253   17.3423 C   0  0  0  0  0  0  0  0  0  0  0  0
   16.2763    0.0528   16.4136 C   0  0  0  0  0  0  0  0  0  0  0  0
   16.9954   -1.2171   16.3370 N   0  0  0  0  0  0  0  0  0  0  0  0
   18.4660   -1.1656   16.3077 C   0  0  0  0  0  0  0  0  0  0  0  0
   19.1383   -2.0102   17.4064 C   0  0  0  0  0  0  0  0  0  0  0  0
   18.7458   -1.5747   18.7520 N   0  0  0  0  0  0  0  0  0  0  0  0
   16.4114   -2.4011   15.9054 C   0  0  0  0  0  0  0  0  0  0  0  0
   17.0326   -3.4261   15.6504 O   0  0  0  0  0  0  0  0  0  0  0  0
   14.9509   -2.4411   15.7564 C   0  0  0  0  0  0  0  0  0  0  0  0
   14.3772   -1.8939   14.5930 C   0  0  0  0  0  0  0  0  0  0  0  0
   12.9897   -1.8862   14.4389 C   0  0  0  0  0  0  0  0  0  0  0  0
   12.1822   -2.4607   15.4202 C   0  0  0  0  0  0  0  0  0  0  0  0
   12.7610   -3.0128   16.5698 C   0  0  0  0  0  0  0  0  0  0  0  0
   14.1548   -2.9846   16.7760 C   0  0  0  0  0  0  0  0  0  0  0  0
   14.7187   -3.3858   18.1196 C   0  0  0  0  0  0  0  0  0  0  0  0
   16.0183   -3.7802   18.1590 F   0  0  0  0  0  0  0  0  0  0  0  0
   14.0258   -4.4359   18.6616 F   0  0  0  0  0  0  0  0  0  0  0  0
   14.5283   -2.2676   19.0395 O   0  0  0  0  0  0  0  0  0  0  0  0
   15.7220   -1.4032   19.1809 N   0  0  0  0  0  0  0  0  0  0  0  0
   15.6898    3.1316   17.3979 N   0  0  0  0  0  0  0  0  0  0  0  0
   14.8710    3.7564   16.3343 C   0  0  0  0  0  0  0  0  0  0  0  0
   14.8694    5.2889   16.3868 C   0  0  0  0  0  0  0  0  0  0  0  0
   16.2028    5.7981   16.2803 O   0  0  0  0  0  0  0  0  0  0  0  0
   17.0370    5.2718   17.3210 C   0  0  0  0  0  0  0  0  0  0  0  0
   17.0415    3.7348   17.3249 C   0  0  0  0  0  0  0  0  0  0  0  0
   13.2897    1.9837   18.4211 H   0  0  0  0  0  0  0  0  0  0  0  0
   13.3011    2.9399   19.9012 H   0  0  0  0  0  0  0  0  0  0  0  0
   13.0341    3.7290   18.3584 H   0  0  0  0  0  0  0  0  0  0  0  0
   15.2132    4.2381   19.1041 H   0  0  0  0  0  0  0  0  0  0  0  0
   15.3309    2.3768   20.5827 H   0  0  0  0  0  0  0  0  0  0  0  0
   17.1973    1.0873   18.7645 H   0  0  0  0  0  0  0  0  0  0  0  0
   16.6906    0.6552   20.3521 H   0  0  0  0  0  0  0  0  0  0  0  0
   14.3458    0.1459   19.3767 H   0  0  0  0  0  0  0  0  0  0  0  0
   14.2539   -0.5455   17.0544 H   0  0  0  0  0  0  0  0  0  0  0  0
   14.5754    1.0753   17.1311 H   0  0  0  0  0  0  0  0  0  0  0  0
   16.9863    0.8363   16.6843 H   0  0  0  0  0  0  0  0  0  0  0  0
   15.9576    0.2971   15.3928 H   0  0  0  0  0  0  0  0  0  0  0  0
   18.8032   -0.1267   16.3972 H   0  0  0  0  0  0  0  0  0  0  0  0
   18.7971   -1.5242   15.3252 H   0  0  0  0  0  0  0  0  0  0  0  0
   20.2260   -1.9257   17.3123 H   0  0  0  0  0  0  0  0  0  0  0  0
   18.8836   -3.0683   17.2928 H   0  0  0  0  0  0  0  0  0  0  0  0
   19.0256   -2.2993   19.4118 H   0  0  0  0  0  0  0  0  0  0  0  0
   17.7158   -1.5939   18.7672 H   0  0  0  0  0  0  0  0  0  0  0  0
   15.0144   -1.4932   13.8083 H   0  0  0  0  0  0  0  0  0  0  0  0
   12.5389   -1.4801   13.5359 H   0  0  0  0  0  0  0  0  0  0  0  0
   11.1054   -2.5034   15.2692 H   0  0  0  0  0  0  0  0  0  0  0  0
   12.1284   -3.4788   17.3188 H   0  0  0  0  0  0  0  0  0  0  0  0
   15.8809   -1.4745   20.1900 H   0  0  0  0  0  0  0  0  0  0  0  0
   15.3003    3.4453   15.3721 H   0  0  0  0  0  0  0  0  0  0  0  0
   13.8479    3.3679   16.3254 H   0  0  0  0  0  0  0  0  0  0  0  0
   14.2995    5.6857   15.5406 H   0  0  0  0  0  0  0  0  0  0  0  0
   14.4063    5.6699   17.3038 H   0  0  0  0  0  0  0  0  0  0  0  0
   18.0524    5.6392   17.1401 H   0  0  0  0  0  0  0  0  0  0  0  0
   16.7108    5.6830   18.2825 H   0  0  0  0  0  0  0  0  0  0  0  0
   17.4987    3.3915   16.3874 H   0  0  0  0  0  0  0  0  0  0  0  0
   17.6969    3.3693   18.1225 H   0  0  0  0  0  0  0  0  0  0  0  0
  1  2  1  0
  2  3  1  0
  3  4  1  0
  4  5  1  0
  5  6  1  0
  6  7  1  0
  7  8  1  0
  8  9  1  0
  9 10  1  0
 10 11  1  0
  8 12  1  0
 12 13  2  0
 12 14  1  0
 14 15  2  0
 15 16  1  0
 16 17  2  0
 17 18  1  0
 18 19  2  0
 19 20  1  0
 20 21  1  0
 20 22  1  0
 20 23  1  0
 23 24  1  0
  2 25  1  0
 25 26  1  0
 26 27  1  0
 27 28  1  0
 28 29  1  0
 29 30  1  0
 24  5  1  0
 30 25  1  0
 19 14  1  0
  1 31  1  0
  1 32  1  0
  1 33  1  0
  2 34  1  0
  3 35  1  0
  4 36  1  0
  4 37  1  0
  5 38  1  0
  6 39  1  0
  6 40  1  0
  7 41  1  0
  7 42  1  0
  9 43  1  0
  9 44  1  0
 10 45  1  0
 10 46  1  0
 11 47  1  0
 11 48  1  0
 15 49  1  0
 16 50  1  0
 17 51  1  0
 18 52  1  0
 24 53  1  0
 26 54  1  0
 26 55  1  0
 27 56  1  0
 27 57  1  0
 29 58  1  0
 29 59  1  0
 30 60  1  0
 30 61  1  0
M  END
>  <Energy>  (471) 
152.79238590349286

>  <compound_id>  (471) 
1791

>  <target_id>  (471) 
1

>  <reference_id>  (471) 
113

>  <inspiration_ids>  (471) 
[23, 113]

>  <energy_score>  (471) 
-114.02536260666614

>  <distance_score>  (471) 
3.911925152908429

>  <path>  (471) 
/opt/xchem-fragalysis-2/maxwin/BulkDock/SCRATCH/505732/C1791-P113/C1791-P113.minimised.mol

>  <scratch_subdir>  (471) 
/opt/xchem-fragalysis-2/maxwin/BulkDock/SCRATCH/505732/C1791-P113

>  <fragmenstein_runtime>  (471) 
59.56275796890259

>  <fragmenstein_outcome>  (471) 
too moved

>  <fragmenstein_mode>  (471) 
expansion

>  <fragmenstein_error>  (471) 


$$$$
C1792-P23
     RDKit          3D

 42 42  0  0  0  0  0  0  0  0999 V2000
   12.3168   -2.1694   14.1574 C   0  0  0  0  0  0  0  0  0  0  0  0
   12.2328   -2.6598   15.5870 C   0  0  0  0  0  0  0  0  0  0  0  0
   13.5218   -2.5564   16.4040 C   0  0  0  0  0  0  0  0  0  0  0  0
   14.3274   -1.2634   16.2486 C   0  0  0  0  0  0  0  0  0  0  0  0
   14.8107   -0.6188   17.5751 C   0  0  0  0  0  0  0  0  0  0  0  0
   15.3957    0.7726   17.2941 C   0  0  0  0  0  0  0  0  0  0  0  0
   15.8378    1.5133   18.5595 C   0  0  0  0  0  0  0  0  0  0  0  0
   17.0028    0.8766   19.3163 C   0  0  0  0  0  0  0  0  0  0  0  0
   17.8142   -0.1262   18.4911 C   0  0  0  0  0  0  0  0  0  0  0  0
   17.1560   -1.5122   18.3372 C   0  0  0  0  0  0  0  0  0  0  0  0
   17.5999   -2.2318   17.0629 C   0  0  0  0  0  0  0  0  0  0  0  0
   17.1513   -3.6866   16.9142 C   0  0  0  0  0  0  0  0  0  0  0  0
   17.1663   -4.4254   18.1457 N   0  0  0  0  0  0  0  0  0  0  0  0
   16.0337   -5.1681   18.8809 C   0  0  0  0  0  0  0  0  0  0  0  0
   14.9309   -5.3622   18.5662 O   0  0  0  0  0  0  0  0  0  0  0  0
   15.6625   -1.4532   18.5151 C   0  0  0  0  0  0  0  0  0  0  0  0
   15.1558   -1.9772   19.5123 O   0  0  0  0  0  0  0  0  0  0  0  0
   13.2899   -2.3670   13.7020 H   0  0  0  0  0  0  0  0  0  0  0  0
   12.1361   -1.0912   14.1016 H   0  0  0  0  0  0  0  0  0  0  0  0
   11.5549   -2.6679   13.5561 H   0  0  0  0  0  0  0  0  0  0  0  0
   11.9167   -3.7083   15.5930 H   0  0  0  0  0  0  0  0  0  0  0  0
   11.4245   -2.1179   16.0822 H   0  0  0  0  0  0  0  0  0  0  0  0
   14.1555   -3.3928   16.0974 H   0  0  0  0  0  0  0  0  0  0  0  0
   13.2833   -2.7517   17.4533 H   0  0  0  0  0  0  0  0  0  0  0  0
   15.1955   -1.4805   15.6166 H   0  0  0  0  0  0  0  0  0  0  0  0
   13.7558   -0.5177   15.6848 H   0  0  0  0  0  0  0  0  0  0  0  0
   13.9603   -0.4333   18.2223 H   0  0  0  0  0  0  0  0  0  0  0  0
   16.2153    0.7095   16.5700 H   0  0  0  0  0  0  0  0  0  0  0  0
   14.6349    1.3889   16.7993 H   0  0  0  0  0  0  0  0  0  0  0  0
   14.9872    1.6451   19.2393 H   0  0  0  0  0  0  0  0  0  0  0  0
   16.1389    2.5253   18.2591 H   0  0  0  0  0  0  0  0  0  0  0  0
   17.6707    1.6795   19.6534 H   0  0  0  0  0  0  0  0  0  0  0  0
   16.6381    0.3985   20.2339 H   0  0  0  0  0  0  0  0  0  0  0  0
   18.0813    0.3048   17.5192 H   0  0  0  0  0  0  0  0  0  0  0  0
   18.7780   -0.2778   18.9969 H   0  0  0  0  0  0  0  0  0  0  0  0
   17.5252   -2.0992   19.1911 H   0  0  0  0  0  0  0  0  0  0  0  0
   17.3153   -1.6704   16.1671 H   0  0  0  0  0  0  0  0  0  0  0  0
   18.6992   -2.2358   17.0641 H   0  0  0  0  0  0  0  0  0  0  0  0
   17.8075   -4.2079   16.2096 H   0  0  0  0  0  0  0  0  0  0  0  0
   16.1421   -3.7391   16.5120 H   0  0  0  0  0  0  0  0  0  0  0  0
   18.0280   -4.5157   18.6723 H   0  0  0  0  0  0  0  0  0  0  0  0
   16.5006   -5.5378   19.8139 H   0  0  0  0  0  0  0  0  0  0  0  0
  1  2  1  0
  2  3  1  0
  3  4  1  0
  4  5  1  0
  5  6  1  0
  6  7  1  0
  7  8  1  0
  8  9  1  0
  9 10  1  0
 10 11  1  0
 11 12  1  0
 12 13  1  0
 13 14  1  0
 14 15  2  0
 10 16  1  0
 16 17  2  0
 16  5  1  0
  1 18  1  0
  1 19  1  0
  1 20  1  0
  2 21  1  0
  2 22  1  0
  3 23  1  0
  3 24  1  0
  4 25  1  0
  4 26  1  0
  5 27  1  0
  6 28  1  0
  6 29  1  0
  7 30  1  0
  7 31  1  0
  8 32  1  0
  8 33  1  0
  9 34  1  0
  9 35  1  0
 10 36  1  0
 11 37  1  0
 11 38  1  0
 12 39  1  0
 12 40  1  0
 13 41  1  0
 14 42  1  0
M  END
>  <Energy>  (472) 
24.029365283654386

>  <compound_id>  (472) 
1792

>  <target_id>  (472) 
1

>  <reference_id>  (472) 
23

>  <inspiration_ids>  (472) 
[23, 114]

>  <energy_score>  (472) 
2.9989811348538495

>  <distance_score>  (472) 
1.9686903056209477

>  <path>  (472) 
/opt/xchem-fragalysis-2/maxwin/BulkDock/SCRATCH/505732/C1792-P23/C1792-P23.minimised.mol

>  <scratch_subdir>  (472) 
/opt/xchem-fragalysis-2/maxwin/BulkDock/SCRATCH/505732/C1792-P23

>  <fragmenstein_runtime>  (472) 
15.236693859100342

>  <fragmenstein_outcome>  (472) 
too moved

>  <fragmenstein_mode>  (472) 
expansion

>  <fragmenstein_error>  (472) 


$$$$
C1792-P114
     RDKit          3D

 42 42  0  0  0  0  0  0  0  0999 V2000
   11.9614   -2.1569   14.2493 C   0  0  0  0  0  0  0  0  0  0  0  0
   12.9046   -2.6294   15.3325 C   0  0  0  0  0  0  0  0  0  0  0  0
   12.8427   -1.7520   16.5692 C   0  0  0  0  0  0  0  0  0  0  0  0
   13.6130   -0.4411   16.4460 C   0  0  0  0  0  0  0  0  0  0  0  0
   14.1150    0.0702   17.8115 C   0  0  0  0  0  0  0  0  0  0  0  0
   14.5808    1.5351   17.7523 C   0  0  0  0  0  0  0  0  0  0  0  0
   15.6186    1.8737   18.8195 C   0  0  0  0  0  0  0  0  0  0  0  0
   17.0260    1.4046   18.4414 C   0  0  0  0  0  0  0  0  0  0  0  0
   17.1128    0.1991   17.4943 C   0  0  0  0  0  0  0  0  0  0  0  0
   16.4897   -1.0774   18.0563 C   0  0  0  0  0  0  0  0  0  0  0  0
   16.5648   -2.2454   17.0607 C   0  0  0  0  0  0  0  0  0  0  0  0
   16.0563   -3.5833   17.6025 C   0  0  0  0  0  0  0  0  0  0  0  0
   16.6868   -3.9510   18.8393 N   0  0  0  0  0  0  0  0  0  0  0  0
   18.0268   -4.6557   19.1061 C   0  0  0  0  0  0  0  0  0  0  0  0
   18.7950   -5.1178   18.3671 O   0  0  0  0  0  0  0  0  0  0  0  0
   15.0843   -0.8575   18.5642 C   0  0  0  0  0  0  0  0  0  0  0  0
   14.7375   -1.4193   19.6096 O   0  0  0  0  0  0  0  0  0  0  0  0
   11.9879   -2.8451   13.4006 H   0  0  0  0  0  0  0  0  0  0  0  0
   12.2320   -1.1595   13.8899 H   0  0  0  0  0  0  0  0  0  0  0  0
   10.9363   -2.1229   14.6300 H   0  0  0  0  0  0  0  0  0  0  0  0
   13.9293   -2.6746   14.9522 H   0  0  0  0  0  0  0  0  0  0  0  0
   12.6162   -3.6472   15.6188 H   0  0  0  0  0  0  0  0  0  0  0  0
   13.2124   -2.3401   17.4121 H   0  0  0  0  0  0  0  0  0  0  0  0
   11.7998   -1.5166   16.7845 H   0  0  0  0  0  0  0  0  0  0  0  0
   14.4633   -0.5506   15.7662 H   0  0  0  0  0  0  0  0  0  0  0  0
   12.9554    0.3111   15.9918 H   0  0  0  0  0  0  0  0  0  0  0  0
   13.2542    0.1052   18.4662 H   0  0  0  0  0  0  0  0  0  0  0  0
   14.9557    1.7987   16.7562 H   0  0  0  0  0  0  0  0  0  0  0  0
   13.7018    2.1760   17.9048 H   0  0  0  0  0  0  0  0  0  0  0  0
   15.3236    1.4600   19.7914 H   0  0  0  0  0  0  0  0  0  0  0  0
   15.6477    2.9615   18.9601 H   0  0  0  0  0  0  0  0  0  0  0  0
   17.5419    2.2401   17.9501 H   0  0  0  0  0  0  0  0  0  0  0  0
   17.5938    1.2011   19.3576 H   0  0  0  0  0  0  0  0  0  0  0  0
   16.6813    0.4466   16.5179 H   0  0  0  0  0  0  0  0  0  0  0  0
   18.1761    0.0080   17.2961 H   0  0  0  0  0  0  0  0  0  0  0  0
   17.0898   -1.3395   18.9393 H   0  0  0  0  0  0  0  0  0  0  0  0
   16.0254   -2.0124   16.1387 H   0  0  0  0  0  0  0  0  0  0  0  0
   17.6162   -2.3748   16.7699 H   0  0  0  0  0  0  0  0  0  0  0  0
   16.2738   -4.3704   16.8727 H   0  0  0  0  0  0  0  0  0  0  0  0
   14.9791   -3.5729   17.7755 H   0  0  0  0  0  0  0  0  0  0  0  0
   16.2302   -3.7426   19.7249 H   0  0  0  0  0  0  0  0  0  0  0  0
   18.1159   -4.6783   20.2094 H   0  0  0  0  0  0  0  0  0  0  0  0
  1  2  1  0
  2  3  1  0
  3  4  1  0
  4  5  1  0
  5  6  1  0
  6  7  1  0
  7  8  1  0
  8  9  1  0
  9 10  1  0
 10 11  1  0
 11 12  1  0
 12 13  1  0
 13 14  1  0
 14 15  2  0
 10 16  1  0
 16 17  2  0
 16  5  1  0
  1 18  1  0
  1 19  1  0
  1 20  1  0
  2 21  1  0
  2 22  1  0
  3 23  1  0
  3 24  1  0
  4 25  1  0
  4 26  1  0
  5 27  1  0
  6 28  1  0
  6 29  1  0
  7 30  1  0
  7 31  1  0
  8 32  1  0
  8 33  1  0
  9 34  1  0
  9 35  1  0
 10 36  1  0
 11 37  1  0
 11 38  1  0
 12 39  1  0
 12 40  1  0
 13 41  1  0
 14 42  1  0
M  END
>  <Energy>  (473) 
10.957439679418913

>  <compound_id>  (473) 
1792

>  <target_id>  (473) 
1

>  <reference_id>  (473) 
114

>  <inspiration_ids>  (473) 
[23, 114]

>  <energy_score>  (473) 
-10.072944469381241

>  <distance_score>  (473) 
1.4842349253634128

>  <path>  (473) 
/opt/xchem-fragalysis-2/maxwin/BulkDock/SCRATCH/505732/C1792-P114/C1792-P114.minimised.mol

>  <scratch_subdir>  (473) 
/opt/xchem-fragalysis-2/maxwin/BulkDock/SCRATCH/505732/C1792-P114

>  <fragmenstein_runtime>  (473) 
14.480091094970703

>  <fragmenstein_outcome>  (473) 
too moved

>  <fragmenstein_mode>  (473) 
expansion

>  <fragmenstein_error>  (473) 


$$$$
C1794-P23
     RDKit          3D

 28 29  0  0  0  0  0  0  0  0999 V2000
   13.5430    3.2683   15.2309 C   0  0  0  0  0  0  0  0  0  0  0  0
   14.1255    2.2606   14.3329 C   0  0  0  0  0  0  0  0  0  0  0  0
   14.0503    2.2640   13.0181 N   0  0  0  0  0  0  0  0  0  0  0  0
   14.8233    1.2193   12.5844 N   0  0  0  0  0  0  0  0  0  0  0  0
   15.3741    0.5851   13.6038 N   0  0  0  0  0  0  0  0  0  0  0  0
   14.8802    1.1754   14.6938 N   0  0  0  0  0  0  0  0  0  0  0  0
   15.0495    0.7394   15.9223 N   0  0  0  0  0  0  0  0  0  0  0  0
   14.6994   -0.6180   16.5584 C   0  0  0  0  0  0  0  0  0  0  0  0
   14.2764   -1.5908   16.0772 O   0  0  0  0  0  0  0  0  0  0  0  0
   15.0658   -0.5304   18.0618 C   0  0  0  0  0  0  0  0  0  0  0  0
   15.1611    0.8374   18.5209 O   0  0  0  0  0  0  0  0  0  0  0  0
   16.4546    1.0220   19.1098 C   0  0  0  0  0  0  0  0  0  0  0  0
   17.3324   -0.0359   18.4825 C   0  0  0  0  0  0  0  0  0  0  0  0
   16.3821   -1.2104   18.4074 C   0  0  0  0  0  0  0  0  0  0  0  0
   16.8263   -2.3234   17.4751 C   0  0  0  0  0  0  0  0  0  0  0  0
   12.5646    3.5911   14.8623 H   0  0  0  0  0  0  0  0  0  0  0  0
   13.4167    2.8993   16.2505 H   0  0  0  0  0  0  0  0  0  0  0  0
   14.1915    4.1492   15.2730 H   0  0  0  0  0  0  0  0  0  0  0  0
   15.4731    1.3392   16.6180 H   0  0  0  0  0  0  0  0  0  0  0  0
   14.2504   -0.9996   18.6171 H   0  0  0  0  0  0  0  0  0  0  0  0
   16.8085    2.0373   18.9124 H   0  0  0  0  0  0  0  0  0  0  0  0
   16.3619    0.8819   20.1922 H   0  0  0  0  0  0  0  0  0  0  0  0
   18.2301   -0.2401   19.0727 H   0  0  0  0  0  0  0  0  0  0  0  0
   17.6440    0.2758   17.4784 H   0  0  0  0  0  0  0  0  0  0  0  0
   16.2901   -1.6337   19.4177 H   0  0  0  0  0  0  0  0  0  0  0  0
   16.0765   -3.1196   17.4269 H   0  0  0  0  0  0  0  0  0  0  0  0
   17.7578   -2.7695   17.8408 H   0  0  0  0  0  0  0  0  0  0  0  0
   17.0214   -1.9615   16.4603 H   0  0  0  0  0  0  0  0  0  0  0  0
  1  2  1  0
  2  3  2  0
  3  4  1  0
  4  5  2  0
  5  6  1  0
  6  7  1  0
  7  8  1  0
  8  9  2  0
  8 10  1  0
 10 11  1  0
 11 12  1  0
 12 13  1  0
 13 14  1  0
 14 15  1  0
  6  2  1  0
 14 10  1  0
  1 16  1  0
  1 17  1  0
  1 18  1  0
  7 19  1  0
 10 20  1  0
 12 21  1  0
 12 22  1  0
 13 23  1  0
 13 24  1  0
 14 25  1  0
 15 26  1  0
 15 27  1  0
 15 28  1  0
M  END
>  <Energy>  (474) 
8.9357963537728509

>  <compound_id>  (474) 
1794

>  <target_id>  (474) 
1

>  <reference_id>  (474) 
23

>  <inspiration_ids>  (474) 
[23, 120]

>  <energy_score>  (474) 
-11.554006711638223

>  <distance_score>  (474) 
2.3362505247357106

>  <path>  (474) 
/opt/xchem-fragalysis-2/maxwin/BulkDock/SCRATCH/505732/C1794-P23/C1794-P23.minimised.mol

>  <scratch_subdir>  (474) 
/opt/xchem-fragalysis-2/maxwin/BulkDock/SCRATCH/505732/C1794-P23

>  <fragmenstein_runtime>  (474) 
3.543140411376953

>  <fragmenstein_outcome>  (474) 
too moved

>  <fragmenstein_mode>  (474) 
expansion

>  <fragmenstein_error>  (474) 


$$$$
C1794-P120
     RDKit          3D

 28 29  0  0  0  0  0  0  0  0999 V2000
   13.0519    3.2595   15.2599 C   0  0  0  0  0  0  0  0  0  0  0  0
   13.8321    2.2930   14.4745 C   0  0  0  0  0  0  0  0  0  0  0  0
   13.8571    2.1675   13.1640 N   0  0  0  0  0  0  0  0  0  0  0  0
   14.7720    1.1813   12.8902 N   0  0  0  0  0  0  0  0  0  0  0  0
   15.3003    0.7043   14.0048 N   0  0  0  0  0  0  0  0  0  0  0  0
   14.6721    1.3470   14.9909 N   0  0  0  0  0  0  0  0  0  0  0  0
   14.7733    1.0505   16.2632 N   0  0  0  0  0  0  0  0  0  0  0  0
   13.9112    0.1310   17.1471 C   0  0  0  0  0  0  0  0  0  0  0  0
   12.9301   -0.4478   16.9034 O   0  0  0  0  0  0  0  0  0  0  0  0
   14.6561   -0.0073   18.4934 C   0  0  0  0  0  0  0  0  0  0  0  0
   15.3087    1.2307   18.8457 O   0  0  0  0  0  0  0  0  0  0  0  0
   16.6531    0.9311   19.2294 C   0  0  0  0  0  0  0  0  0  0  0  0
   17.0187   -0.3019   18.4386 C   0  0  0  0  0  0  0  0  0  0  0  0
   15.7322   -1.0991   18.4956 C   0  0  0  0  0  0  0  0  0  0  0  0
   15.6373   -2.1720   17.4194 C   0  0  0  0  0  0  0  0  0  0  0  0
   12.5380    3.9672   14.6019 H   0  0  0  0  0  0  0  0  0  0  0  0
   12.2938    2.7492   15.8622 H   0  0  0  0  0  0  0  0  0  0  0  0
   13.6993    3.8338   15.9298 H   0  0  0  0  0  0  0  0  0  0  0  0
   15.5154    1.4550   16.8195 H   0  0  0  0  0  0  0  0  0  0  0  0
   13.9156   -0.2042   19.2715 H   0  0  0  0  0  0  0  0  0  0  0  0
   17.3003    1.7835   19.0067 H   0  0  0  0  0  0  0  0  0  0  0  0
   16.6725    0.7419   20.3083 H   0  0  0  0  0  0  0  0  0  0  0  0
   17.8755   -0.8331   18.8630 H   0  0  0  0  0  0  0  0  0  0  0  0
   17.2633   -0.0305   17.4050 H   0  0  0  0  0  0  0  0  0  0  0  0
   15.6903   -1.6025   19.4719 H   0  0  0  0  0  0  0  0  0  0  0  0
   14.6785   -2.6974   17.4772 H   0  0  0  0  0  0  0  0  0  0  0  0
   16.4321   -2.9138   17.5535 H   0  0  0  0  0  0  0  0  0  0  0  0
   15.7454   -1.7574   16.4122 H   0  0  0  0  0  0  0  0  0  0  0  0
  1  2  1  0
  2  3  2  0
  3  4  1  0
  4  5  2  0
  5  6  1  0
  6  7  1  0
  7  8  1  0
  8  9  2  0
  8 10  1  0
 10 11  1  0
 11 12  1  0
 12 13  1  0
 13 14  1  0
 14 15  1  0
  6  2  1  0
 14 10  1  0
  1 16  1  0
  1 17  1  0
  1 18  1  0
  7 19  1  0
 10 20  1  0
 12 21  1  0
 12 22  1  0
 13 23  1  0
 13 24  1  0
 14 25  1  0
 15 26  1  0
 15 27  1  0
 15 28  1  0
M  END
>  <Energy>  (475) 
5.7592839284746304

>  <compound_id>  (475) 
1794

>  <target_id>  (475) 
1

>  <reference_id>  (475) 
120

>  <inspiration_ids>  (475) 
[23, 120]

>  <energy_score>  (475) 
-14.730519136936294

>  <distance_score>  (475) 
2.0537762945652465

>  <path>  (475) 
/opt/xchem-fragalysis-2/maxwin/BulkDock/SCRATCH/505732/C1794-P120/C1794-P120.minimised.mol

>  <scratch_subdir>  (475) 
/opt/xchem-fragalysis-2/maxwin/BulkDock/SCRATCH/505732/C1794-P120

>  <fragmenstein_runtime>  (475) 
2.6404800415039062

>  <fragmenstein_outcome>  (475) 
too moved

>  <fragmenstein_mode>  (475) 
expansion

>  <fragmenstein_error>  (475) 


$$$$
C1795-P23
     RDKit          3D

 24 25  0  0  0  0  0  0  0  0999 V2000
   16.4159   -2.4993   18.4775 C   0  0  0  0  0  0  0  0  0  0  0  0
   16.2881   -1.0013   18.4847 C   0  0  0  0  0  0  0  0  0  0  0  0
   16.8842   -0.2500   19.5038 C   0  0  0  0  0  0  0  0  0  0  0  0
   16.7457    1.1350   19.5393 C   0  0  0  0  0  0  0  0  0  0  0  0
   16.0343    1.7689   18.5369 C   0  0  0  0  0  0  0  0  0  0  0  0
   15.8982    3.1013   18.5668 F   0  0  0  0  0  0  0  0  0  0  0  0
   15.4504    1.0463   17.5041 C   0  0  0  0  0  0  0  0  0  0  0  0
   15.5477   -0.3387   17.4971 C   0  0  0  0  0  0  0  0  0  0  0  0
   14.7290   -1.1217   16.7003 N   0  0  0  0  0  0  0  0  0  0  0  0
   13.9247   -0.7645   15.4318 C   0  0  0  0  0  0  0  0  0  0  0  0
   13.8861    0.2247   14.8143 O   0  0  0  0  0  0  0  0  0  0  0  0
   13.0981   -1.9190   15.1821 C   0  0  0  0  0  0  0  0  0  0  0  0
   13.1052   -2.9480   16.0126 N   0  0  0  0  0  0  0  0  0  0  0  0
   11.9248   -3.5927   15.8318 N   0  0  0  0  0  0  0  0  0  0  0  0
   11.2173   -3.0163   14.8751 N   0  0  0  0  0  0  0  0  0  0  0  0
   11.9729   -2.0030   14.4219 N   0  0  0  0  0  0  0  0  0  0  0  0
   16.6553   -2.8695   17.4749 H   0  0  0  0  0  0  0  0  0  0  0  0
   15.4895   -2.9631   18.8312 H   0  0  0  0  0  0  0  0  0  0  0  0
   17.2281   -2.8260   19.1362 H   0  0  0  0  0  0  0  0  0  0  0  0
   17.4500   -0.7442   20.2914 H   0  0  0  0  0  0  0  0  0  0  0  0
   17.1947    1.7188   20.3363 H   0  0  0  0  0  0  0  0  0  0  0  0
   14.8742    1.5835   16.7580 H   0  0  0  0  0  0  0  0  0  0  0  0
   14.4599   -2.0510   17.0236 H   0  0  0  0  0  0  0  0  0  0  0  0
   11.5908   -1.3634   13.7336 H   0  0  0  0  0  0  0  0  0  0  0  0
  1  2  1  0
  2  3  2  0
  3  4  1  0
  4  5  2  0
  5  6  1  0
  5  7  1  0
  7  8  2  0
  8  9  1  0
  9 10  1  0
 10 11  2  0
 10 12  1  0
 12 13  2  0
 13 14  1  0
 14 15  2  0
 15 16  1  0
  8  2  1  0
 16 12  1  0
  1 17  1  0
  1 18  1  0
  1 19  1  0
  3 20  1  0
  4 21  1  0
  7 22  1  0
  9 23  1  0
 16 24  1  0
M  END
>  <Energy>  (476) 
11.980203938931426

>  <compound_id>  (476) 
1795

>  <target_id>  (476) 
1

>  <reference_id>  (476) 
23

>  <inspiration_ids>  (476) 
[23, 122]

>  <energy_score>  (476) 
-9.616062211568988

>  <distance_score>  (476) 
1.8109421086644395

>  <path>  (476) 
/opt/xchem-fragalysis-2/maxwin/BulkDock/SCRATCH/505732/C1795-P23/C1795-P23.minimised.mol

>  <scratch_subdir>  (476) 
/opt/xchem-fragalysis-2/maxwin/BulkDock/SCRATCH/505732/C1795-P23

>  <fragmenstein_runtime>  (476) 
1.516441822052002

>  <fragmenstein_outcome>  (476) 
too moved

>  <fragmenstein_mode>  (476) 
expansion

>  <fragmenstein_error>  (476) 


$$$$
C1795-P122
     RDKit          3D

 24 25  0  0  0  0  0  0  0  0999 V2000
   16.9181   -0.4827   16.5202 C   0  0  0  0  0  0  0  0  0  0  0  0
   16.3924   -0.0762   17.8668 C   0  0  0  0  0  0  0  0  0  0  0  0
   17.0907    0.8895   18.6005 C   0  0  0  0  0  0  0  0  0  0  0  0
   16.7285    1.1795   19.9144 C   0  0  0  0  0  0  0  0  0  0  0  0
   15.6993    0.4688   20.5123 C   0  0  0  0  0  0  0  0  0  0  0  0
   15.3853    0.7135   21.7910 F   0  0  0  0  0  0  0  0  0  0  0  0
   14.9793   -0.4764   19.7972 C   0  0  0  0  0  0  0  0  0  0  0  0
   15.2717   -0.6743   18.4449 C   0  0  0  0  0  0  0  0  0  0  0  0
   14.3972   -1.4325   17.6844 N   0  0  0  0  0  0  0  0  0  0  0  0
   13.9219   -1.2538   16.2189 C   0  0  0  0  0  0  0  0  0  0  0  0
   14.2532   -0.4847   15.4036 O   0  0  0  0  0  0  0  0  0  0  0  0
   12.9080   -2.2227   15.9693 C   0  0  0  0  0  0  0  0  0  0  0  0
   12.5876   -3.1658   16.8238 N   0  0  0  0  0  0  0  0  0  0  0  0
   11.5956   -3.8735   16.2271 N   0  0  0  0  0  0  0  0  0  0  0  0
   11.2536   -3.3351   15.0670 N   0  0  0  0  0  0  0  0  0  0  0  0
   12.1070   -2.3279   14.8780 N   0  0  0  0  0  0  0  0  0  0  0  0
   16.6324   -1.5028   16.2477 H   0  0  0  0  0  0  0  0  0  0  0  0
   16.5922    0.2227   15.7511 H   0  0  0  0  0  0  0  0  0  0  0  0
   18.0147   -0.4763   16.5323 H   0  0  0  0  0  0  0  0  0  0  0  0
   17.9445    1.4014   18.1609 H   0  0  0  0  0  0  0  0  0  0  0  0
   17.2727    1.9224   20.4889 H   0  0  0  0  0  0  0  0  0  0  0  0
   14.1625   -0.9861   20.2951 H   0  0  0  0  0  0  0  0  0  0  0  0
   13.8361   -2.1513   18.1389 H   0  0  0  0  0  0  0  0  0  0  0  0
   12.0629   -1.7721   14.0312 H   0  0  0  0  0  0  0  0  0  0  0  0
  1  2  1  0
  2  3  2  0
  3  4  1  0
  4  5  2  0
  5  6  1  0
  5  7  1  0
  7  8  2  0
  8  9  1  0
  9 10  1  0
 10 11  2  0
 10 12  1  0
 12 13  2  0
 13 14  1  0
 14 15  2  0
 15 16  1  0
  8  2  1  0
 16 12  1  0
  1 17  1  0
  1 18  1  0
  1 19  1  0
  3 20  1  0
  4 21  1  0
  7 22  1  0
  9 23  1  0
 16 24  1  0
M  END
>  <Energy>  (477) 
12.25423909496881

>  <compound_id>  (477) 
1795

>  <target_id>  (477) 
1

>  <reference_id>  (477) 
122

>  <inspiration_ids>  (477) 
[23, 122]

>  <energy_score>  (477) 
-9.342027055532185

>  <distance_score>  (477) 
1.7373221089512183

>  <path>  (477) 
/opt/xchem-fragalysis-2/maxwin/BulkDock/SCRATCH/505732/C1795-P122/C1795-P122.minimised.mol

>  <scratch_subdir>  (477) 
/opt/xchem-fragalysis-2/maxwin/BulkDock/SCRATCH/505732/C1795-P122

>  <fragmenstein_runtime>  (477) 
1.9856696128845215

>  <fragmenstein_outcome>  (477) 
too moved

>  <fragmenstein_mode>  (477) 
expansion

>  <fragmenstein_error>  (477) 


$$$$
C564-P23
     RDKit          3D

 42 43  0  0  0  0  0  0  0  0999 V2000
   17.6967   -8.0108   14.8094 C   0  0  0  0  0  0  0  0  0  0  0  0
   17.1455   -7.1378   15.7957 O   0  0  0  0  0  0  0  0  0  0  0  0
   17.9367   -6.0546   16.0621 C   0  0  0  0  0  0  0  0  0  0  0  0
   18.9802   -5.7950   15.4733 O   0  0  0  0  0  0  0  0  0  0  0  0
   17.4064   -5.2795   17.2532 C   0  0  0  0  0  0  0  0  0  0  0  0
   16.0853   -4.7605   17.0508 N   0  0  0  0  0  0  0  0  0  0  0  0
   15.6092   -3.4291   16.4075 C   0  0  0  0  0  0  0  0  0  0  0  0
   16.2383   -2.4902   16.0018 N   0  0  0  0  0  0  0  0  0  0  0  0
   15.7191   -1.1851   15.6674 C   0  0  0  0  0  0  0  0  0  0  0  0
   16.7101   -0.2015   16.2286 C   0  0  0  0  0  0  0  0  0  0  0  0
   17.1045   -0.5122   17.6722 C   0  0  0  0  0  0  0  0  0  0  0  0
   16.0374   -0.4057   18.6318 N   0  0  0  0  0  0  0  0  0  0  0  0
   15.5444   -1.4912   19.2455 N   0  0  0  0  0  0  0  0  0  0  0  0
   14.7546   -1.0221   20.1993 N   0  0  0  0  0  0  0  0  0  0  0  0
   14.7224    0.3485   20.1803 N   0  0  0  0  0  0  0  0  0  0  0  0
   15.5106    0.7216   19.1966 C   0  0  0  0  0  0  0  0  0  0  0  0
   15.8128    2.1007   18.7881 C   0  0  0  0  0  0  0  0  0  0  0  0
   14.1364   -3.4391   16.3662 C   0  0  0  0  0  0  0  0  0  0  0  0
   13.3086   -2.6943   15.4929 C   0  0  0  0  0  0  0  0  0  0  0  0
   12.0569   -3.1621   15.7098 C   0  0  0  0  0  0  0  0  0  0  0  0
   10.8299   -2.8986   14.9763 C   0  0  0  0  0  0  0  0  0  0  0  0
   12.0851   -4.1058   16.6782 O   0  0  0  0  0  0  0  0  0  0  0  0
   13.3968   -4.2904   17.0997 N   0  0  0  0  0  0  0  0  0  0  0  0
   17.8679   -7.4797   13.8681 H   0  0  0  0  0  0  0  0  0  0  0  0
   18.6281   -8.4543   15.1753 H   0  0  0  0  0  0  0  0  0  0  0  0
   16.9820   -8.8170   14.6277 H   0  0  0  0  0  0  0  0  0  0  0  0
   17.4268   -5.9383   18.1276 H   0  0  0  0  0  0  0  0  0  0  0  0
   18.0970   -4.4542   17.4572 H   0  0  0  0  0  0  0  0  0  0  0  0
   15.2855   -5.3668   17.2007 H   0  0  0  0  0  0  0  0  0  0  0  0
   14.7705   -0.9303   16.1466 H   0  0  0  0  0  0  0  0  0  0  0  0
   15.6353   -1.0557   14.5837 H   0  0  0  0  0  0  0  0  0  0  0  0
   16.3098    0.8147   16.1413 H   0  0  0  0  0  0  0  0  0  0  0  0
   17.6238   -0.2262   15.6205 H   0  0  0  0  0  0  0  0  0  0  0  0
   17.5708   -1.4982   17.7799 H   0  0  0  0  0  0  0  0  0  0  0  0
   17.8755    0.2033   17.9846 H   0  0  0  0  0  0  0  0  0  0  0  0
   16.8912    2.2811   18.7546 H   0  0  0  0  0  0  0  0  0  0  0  0
   15.3901    2.3145   17.8021 H   0  0  0  0  0  0  0  0  0  0  0  0
   15.3796    2.8140   19.4966 H   0  0  0  0  0  0  0  0  0  0  0  0
   13.5733   -2.0116   14.7013 H   0  0  0  0  0  0  0  0  0  0  0  0
   11.0826   -2.7820   13.9204 H   0  0  0  0  0  0  0  0  0  0  0  0
   10.1506   -3.7339   15.0587 H   0  0  0  0  0  0  0  0  0  0  0  0
   10.3377   -1.9896   15.3215 H   0  0  0  0  0  0  0  0  0  0  0  0
  1  2  1  0
  2  3  1  0
  3  4  2  0
  3  5  1  0
  5  6  1  0
  6  7  1  0
  7  8  2  3
  8  9  1  0
  9 10  1  0
 10 11  1  0
 11 12  1  0
 12 13  1  0
 13 14  2  0
 14 15  1  0
 15 16  2  0
 16 17  1  0
  7 18  1  0
 18 19  1  0
 19 20  2  0
 20 21  1  0
 20 22  1  0
 22 23  1  0
 16 12  1  0
 23 18  2  0
  1 24  1  0
  1 25  1  0
  1 26  1  0
  5 27  1  0
  5 28  1  0
  6 29  1  0
  9 30  1  0
  9 31  1  0
 10 32  1  0
 10 33  1  0
 11 34  1  0
 11 35  1  0
 17 36  1  0
 17 37  1  0
 17 38  1  0
 19 39  1  0
 21 40  1  0
 21 41  1  0
 21 42  1  0
M  END
>  <Energy>  (478) 
53.27322657446792

>  <compound_id>  (478) 
564

>  <target_id>  (478) 
1

>  <reference_id>  (478) 
23

>  <inspiration_ids>  (478) 
[23, 184]

>  <energy_score>  (478) 
-6.998202679438322

>  <distance_score>  (478) 
4.069711164522596

>  <path>  (478) 
/opt/xchem-fragalysis-2/maxwin/BulkDock/SCRATCH/505732/C564-P23/C564-P23.minimised.mol

>  <scratch_subdir>  (478) 
/opt/xchem-fragalysis-2/maxwin/BulkDock/SCRATCH/505732/C564-P23

>  <fragmenstein_runtime>  (478) 
5.187643051147461

>  <fragmenstein_outcome>  (478) 
too moved

>  <fragmenstein_mode>  (478) 
expansion

>  <fragmenstein_error>  (478) 


$$$$
C564-P184
     RDKit          3D

 42 43  0  0  0  0  0  0  0  0999 V2000
   13.6058   -4.2583   21.4690 C   0  0  0  0  0  0  0  0  0  0  0  0
   13.5454   -4.3365   20.0466 O   0  0  0  0  0  0  0  0  0  0  0  0
   14.6179   -4.9466   19.4799 C   0  0  0  0  0  0  0  0  0  0  0  0
   15.5392   -5.4675   20.1056 O   0  0  0  0  0  0  0  0  0  0  0  0
   14.5450   -4.9748   17.9627 C   0  0  0  0  0  0  0  0  0  0  0  0
   13.5373   -4.1327   17.3792 N   0  0  0  0  0  0  0  0  0  0  0  0
   13.6663   -2.9087   16.4512 C   0  0  0  0  0  0  0  0  0  0  0  0
   14.6335   -2.3287   16.0652 N   0  0  0  0  0  0  0  0  0  0  0  0
   14.8031   -1.1151   15.3463 C   0  0  0  0  0  0  0  0  0  0  0  0
   16.1861   -0.6296   15.7521 C   0  0  0  0  0  0  0  0  0  0  0  0
   16.6492   -1.0069   17.1734 C   0  0  0  0  0  0  0  0  0  0  0  0
   15.7883   -0.6321   18.2696 N   0  0  0  0  0  0  0  0  0  0  0  0
   15.3179   -1.5645   19.1175 N   0  0  0  0  0  0  0  0  0  0  0  0
   14.7026   -0.8935   20.0789 N   0  0  0  0  0  0  0  0  0  0  0  0
   14.7893    0.4563   19.8664 N   0  0  0  0  0  0  0  0  0  0  0  0
   15.4840    0.6102   18.7583 C   0  0  0  0  0  0  0  0  0  0  0  0
   15.8987    1.8874   18.1642 C   0  0  0  0  0  0  0  0  0  0  0  0
   12.3377   -2.4690   16.0183 C   0  0  0  0  0  0  0  0  0  0  0  0
   11.7560   -1.1798   16.0989 C   0  0  0  0  0  0  0  0  0  0  0  0
   10.5681   -1.2916   15.4306 C   0  0  0  0  0  0  0  0  0  0  0  0
    9.4700   -0.3638   15.1374 C   0  0  0  0  0  0  0  0  0  0  0  0
   10.4364   -2.5599   14.9693 O   0  0  0  0  0  0  0  0  0  0  0  0
   11.5218   -3.3123   15.3705 N   0  0  0  0  0  0  0  0  0  0  0  0
   14.3549   -3.5207   21.7714 H   0  0  0  0  0  0  0  0  0  0  0  0
   12.6309   -3.9372   21.8357 H   0  0  0  0  0  0  0  0  0  0  0  0
   13.8235   -5.2338   21.9149 H   0  0  0  0  0  0  0  0  0  0  0  0
   14.4164   -5.9972   17.6113 H   0  0  0  0  0  0  0  0  0  0  0  0
   15.5235   -4.6346   17.6046 H   0  0  0  0  0  0  0  0  0  0  0  0
   12.5517   -4.3136   17.5653 H   0  0  0  0  0  0  0  0  0  0  0  0
   14.0955   -0.3318   15.6197 H   0  0  0  0  0  0  0  0  0  0  0  0
   14.7508   -1.2651   14.2631 H   0  0  0  0  0  0  0  0  0  0  0  0
   16.2389    0.4563   15.6109 H   0  0  0  0  0  0  0  0  0  0  0  0
   16.9209   -1.0525   15.0538 H   0  0  0  0  0  0  0  0  0  0  0  0
   16.8375   -2.0858   17.2426 H   0  0  0  0  0  0  0  0  0  0  0  0
   17.6168   -0.5265   17.3661 H   0  0  0  0  0  0  0  0  0  0  0  0
   15.3279    2.0918   17.2534 H   0  0  0  0  0  0  0  0  0  0  0  0
   15.7218    2.7125   18.8614 H   0  0  0  0  0  0  0  0  0  0  0  0
   16.9643    1.8851   17.9160 H   0  0  0  0  0  0  0  0  0  0  0  0
   12.1573   -0.2964   16.5687 H   0  0  0  0  0  0  0  0  0  0  0  0
    8.5149   -0.8959   15.1231 H   0  0  0  0  0  0  0  0  0  0  0  0
    9.4060    0.4210   15.8976 H   0  0  0  0  0  0  0  0  0  0  0  0
    9.6297    0.1108   14.1665 H   0  0  0  0  0  0  0  0  0  0  0  0
  1  2  1  0
  2  3  1  0
  3  4  2  0
  3  5  1  0
  5  6  1  0
  6  7  1  0
  7  8  2  3
  8  9  1  0
  9 10  1  0
 10 11  1  0
 11 12  1  0
 12 13  1  0
 13 14  2  0
 14 15  1  0
 15 16  2  0
 16 17  1  0
  7 18  1  0
 18 19  1  0
 19 20  2  0
 20 21  1  0
 20 22  1  0
 22 23  1  0
 16 12  1  0
 23 18  2  0
  1 24  1  0
  1 25  1  0
  1 26  1  0
  5 27  1  0
  5 28  1  0
  6 29  1  0
  9 30  1  0
  9 31  1  0
 10 32  1  0
 10 33  1  0
 11 34  1  0
 11 35  1  0
 17 36  1  0
 17 37  1  0
 17 38  1  0
 19 39  1  0
 21 40  1  0
 21 41  1  0
 21 42  1  0
M  END
>  <Energy>  (479) 
53.136812937882674

>  <compound_id>  (479) 
564

>  <target_id>  (479) 
1

>  <reference_id>  (479) 
184

>  <inspiration_ids>  (479) 
[23, 184]

>  <energy_score>  (479) 
-7.134616316023767

>  <distance_score>  (479) 
2.378275602703876

>  <path>  (479) 
/opt/xchem-fragalysis-2/maxwin/BulkDock/SCRATCH/505732/C564-P184/C564-P184.minimised.mol

>  <scratch_subdir>  (479) 
/opt/xchem-fragalysis-2/maxwin/BulkDock/SCRATCH/505732/C564-P184

>  <fragmenstein_runtime>  (479) 
5.354377269744873

>  <fragmenstein_outcome>  (479) 
too moved

>  <fragmenstein_mode>  (479) 
expansion

>  <fragmenstein_error>  (479) 


$$$$
C1799-P24
     RDKit          3D

 35 37  0  0  0  0  0  0  0  0999 V2000
   -4.7771   -3.0515    6.8666 C   0  0  0  0  0  0  0  0  0  0  0  0
   -6.2432   -3.2635    6.8299 C   0  0  0  0  0  0  0  0  0  0  0  0
   -6.9801   -4.2372    7.4373 N   0  0  0  0  0  0  0  0  0  0  0  0
   -8.2645   -3.8784    7.4352 N   0  0  0  0  0  0  0  0  0  0  0  0
   -8.3702   -2.7046    6.7832 N   0  0  0  0  0  0  0  0  0  0  0  0
   -9.4385   -1.8307    6.6290 C   0  0  0  0  0  0  0  0  0  0  0  0
   -9.2277   -0.6516    6.0071 C   0  0  0  0  0  0  0  0  0  0  0  0
   -7.8857   -0.3264    5.5077 C   0  0  0  0  0  0  0  0  0  0  0  0
   -7.3335    0.9402    4.9928 C   0  0  0  0  0  0  0  0  0  0  0  0
   -7.6579    1.3679    3.7079 C   0  0  0  0  0  0  0  0  0  0  0  0
   -6.9458    2.4139    3.1204 C   0  0  0  0  0  0  0  0  0  0  0  0
   -5.9045    3.0378    3.8069 C   0  0  0  0  0  0  0  0  0  0  0  0
   -5.5817    2.6532    5.1034 C   0  0  0  0  0  0  0  0  0  0  0  0
   -4.3968    3.2511    5.6377 N   0  0  0  0  0  0  0  0  0  0  0  0
   -4.2389    3.3808    7.3067 S   0  0  0  0  0  0  0  0  0  0  0  0
   -3.1519    4.7839    7.4193 C   0  0  0  0  0  0  0  0  0  0  0  0
   -3.5309    2.1862    7.7149 O   0  0  0  0  0  0  0  0  0  0  0  0
   -5.5132    3.7561    7.8757 O   0  0  0  0  0  0  0  0  0  0  0  0
   -6.2779    1.5907    5.6883 C   0  0  0  0  0  0  0  0  0  0  0  0
   -6.9181   -1.2504    5.5298 C   0  0  0  0  0  0  0  0  0  0  0  0
   -7.1231   -2.4025    6.2719 C   0  0  0  0  0  0  0  0  0  0  0  0
   -4.3973   -2.8360    5.8659 H   0  0  0  0  0  0  0  0  0  0  0  0
   -4.2055   -3.8930    7.2472 H   0  0  0  0  0  0  0  0  0  0  0  0
   -4.5403   -2.1802    7.4876 H   0  0  0  0  0  0  0  0  0  0  0  0
  -10.3835   -2.1423    7.0534 H   0  0  0  0  0  0  0  0  0  0  0  0
  -10.0211    0.0776    5.8873 H   0  0  0  0  0  0  0  0  0  0  0  0
   -8.4365    0.8633    3.1394 H   0  0  0  0  0  0  0  0  0  0  0  0
   -7.1952    2.7339    2.1112 H   0  0  0  0  0  0  0  0  0  0  0  0
   -5.3522    3.8372    3.3187 H   0  0  0  0  0  0  0  0  0  0  0  0
   -3.5487    2.8613    5.2215 H   0  0  0  0  0  0  0  0  0  0  0  0
   -2.1905    4.5252    6.9720 H   0  0  0  0  0  0  0  0  0  0  0  0
   -3.0236    5.0338    8.4736 H   0  0  0  0  0  0  0  0  0  0  0  0
   -3.6121    5.6278    6.9014 H   0  0  0  0  0  0  0  0  0  0  0  0
   -5.9949    1.2239    6.6733 H   0  0  0  0  0  0  0  0  0  0  0  0
   -5.9222   -1.0633    5.1362 H   0  0  0  0  0  0  0  0  0  0  0  0
  1  2  1  0
  2  3  1  0
  3  4  2  0
  4  5  1  0
  5  6  1  0
  6  7  2  0
  7  8  1  0
  8  9  1  0
  9 10  2  0
 10 11  1  0
 11 12  2  0
 12 13  1  0
 13 14  1  0
 14 15  1  0
 15 16  1  0
 15 17  2  0
 15 18  2  0
 13 19  2  0
  8 20  2  0
 20 21  1  0
 21  2  2  0
 21  5  1  0
 19  9  1  0
  1 22  1  0
  1 23  1  0
  1 24  1  0
  6 25  1  0
  7 26  1  0
 10 27  1  0
 11 28  1  0
 12 29  1  0
 14 30  1  0
 16 31  1  0
 16 32  1  0
 16 33  1  0
 19 34  1  0
 20 35  1  0
M  END
>  <Energy>  (480) 
11.470273472643719

>  <compound_id>  (480) 
1799

>  <target_id>  (480) 
1

>  <reference_id>  (480) 
24

>  <inspiration_ids>  (480) 
[24, 51]

>  <energy_score>  (480) 
-19.508315046903476

>  <distance_score>  (480) 
2.5062955415715438

>  <path>  (480) 
/opt/xchem-fragalysis-2/maxwin/BulkDock/SCRATCH/505732/C1799-P24/C1799-P24.minimised.mol

>  <scratch_subdir>  (480) 
/opt/xchem-fragalysis-2/maxwin/BulkDock/SCRATCH/505732/C1799-P24

>  <fragmenstein_runtime>  (480) 
18.60648822784424

>  <fragmenstein_outcome>  (480) 
too moved

>  <fragmenstein_mode>  (480) 
expansion

>  <fragmenstein_error>  (480) 


$$$$
C1799-P51
     RDKit          3D

 35 37  0  0  0  0  0  0  0  0999 V2000
   -4.7379   -1.0963    8.0226 C   0  0  0  0  0  0  0  0  0  0  0  0
   -6.1983   -1.2355    8.1315 C   0  0  0  0  0  0  0  0  0  0  0  0
   -6.9339   -0.5812    9.0827 N   0  0  0  0  0  0  0  0  0  0  0  0
   -8.2288   -0.7839    8.8427 N   0  0  0  0  0  0  0  0  0  0  0  0
   -8.3507   -1.5111    7.7137 N   0  0  0  0  0  0  0  0  0  0  0  0
   -9.4768   -1.7871    6.9279 C   0  0  0  0  0  0  0  0  0  0  0  0
   -9.2774   -2.0398    5.6143 C   0  0  0  0  0  0  0  0  0  0  0  0
   -7.8780   -1.8582    5.1335 C   0  0  0  0  0  0  0  0  0  0  0  0
   -7.4541   -0.5084    4.5550 C   0  0  0  0  0  0  0  0  0  0  0  0
   -7.6277   -0.3310    3.1810 C   0  0  0  0  0  0  0  0  0  0  0  0
   -7.2339    0.8536    2.5438 C   0  0  0  0  0  0  0  0  0  0  0  0
   -6.6653    1.8970    3.2652 C   0  0  0  0  0  0  0  0  0  0  0  0
   -6.5220    1.7852    4.6385 C   0  0  0  0  0  0  0  0  0  0  0  0
   -5.8352    2.8757    5.2481 N   0  0  0  0  0  0  0  0  0  0  0  0
   -6.1424    3.3192    6.8306 S   0  0  0  0  0  0  0  0  0  0  0  0
   -6.2261    5.0877    6.6752 C   0  0  0  0  0  0  0  0  0  0  0  0
   -4.9161    2.9765    7.5235 O   0  0  0  0  0  0  0  0  0  0  0  0
   -7.4369    2.8475    7.2543 O   0  0  0  0  0  0  0  0  0  0  0  0
   -6.8839    0.5830    5.2719 C   0  0  0  0  0  0  0  0  0  0  0  0
   -6.9797   -2.4484    5.9669 C   0  0  0  0  0  0  0  0  0  0  0  0
   -7.0641   -1.8336    7.2612 C   0  0  0  0  0  0  0  0  0  0  0  0
   -4.4907   -0.5372    7.1197 H   0  0  0  0  0  0  0  0  0  0  0  0
   -4.2448   -2.0681    7.9513 H   0  0  0  0  0  0  0  0  0  0  0  0
   -4.3266   -0.5550    8.8781 H   0  0  0  0  0  0  0  0  0  0  0  0
  -10.4434   -1.7077    7.4047 H   0  0  0  0  0  0  0  0  0  0  0  0
  -10.0801   -2.2246    4.9107 H   0  0  0  0  0  0  0  0  0  0  0  0
   -8.0520   -1.1317    2.5782 H   0  0  0  0  0  0  0  0  0  0  0  0
   -7.3593    0.9451    1.4676 H   0  0  0  0  0  0  0  0  0  0  0  0
   -6.3576    2.7978    2.7420 H   0  0  0  0  0  0  0  0  0  0  0  0
   -4.8346    2.8848    5.0442 H   0  0  0  0  0  0  0  0  0  0  0  0
   -5.2868    5.4528    6.2556 H   0  0  0  0  0  0  0  0  0  0  0  0
   -6.3737    5.5063    7.6732 H   0  0  0  0  0  0  0  0  0  0  0  0
   -7.0707    5.3471    6.0343 H   0  0  0  0  0  0  0  0  0  0  0  0
   -6.7507    0.5231    6.3421 H   0  0  0  0  0  0  0  0  0  0  0  0
   -7.0883   -3.5305    6.0979 H   0  0  0  0  0  0  0  0  0  0  0  0
  1  2  1  0
  2  3  1  0
  3  4  2  0
  4  5  1  0
  5  6  1  0
  6  7  2  0
  7  8  1  0
  8  9  1  0
  9 10  2  0
 10 11  1  0
 11 12  2  0
 12 13  1  0
 13 14  1  0
 14 15  1  0
 15 16  1  0
 15 17  2  0
 15 18  2  0
 13 19  2  0
  8 20  2  0
 20 21  1  0
 21  2  2  0
 21  5  1  0
 19  9  1  0
  1 22  1  0
  1 23  1  0
  1 24  1  0
  6 25  1  0
  7 26  1  0
 10 27  1  0
 11 28  1  0
 12 29  1  0
 14 30  1  0
 16 31  1  0
 16 32  1  0
 16 33  1  0
 19 34  1  0
 20 35  1  0
M  END
>  <Energy>  (481) 
64.39205380172325

>  <compound_id>  (481) 
1799

>  <target_id>  (481) 
1

>  <reference_id>  (481) 
51

>  <inspiration_ids>  (481) 
[24, 51]

>  <energy_score>  (481) 
33.413465282176674

>  <distance_score>  (481) 
2.0511629271766303

>  <path>  (481) 
/opt/xchem-fragalysis-2/maxwin/BulkDock/SCRATCH/505732/C1799-P51/C1799-P51.minimised.mol

>  <scratch_subdir>  (481) 
/opt/xchem-fragalysis-2/maxwin/BulkDock/SCRATCH/505732/C1799-P51

>  <fragmenstein_runtime>  (481) 
18.07936406135559

>  <fragmenstein_outcome>  (481) 
too moved

>  <fragmenstein_mode>  (481) 
expansion

>  <fragmenstein_error>  (481) 


$$$$
C1800-P24
     RDKit          3D

 38 39  0  0  0  0  0  0  0  0999 V2000
   -8.3013   -3.9032    7.1967 C   0  0  0  0  0  0  0  0  0  0  0  0
   -8.7667   -2.8025    6.3334 C   0  0  0  0  0  0  0  0  0  0  0  0
   -9.9562   -2.2332    6.3406 N   0  0  0  0  0  0  0  0  0  0  0  0
   -9.9344   -1.2766    5.3599 N   0  0  0  0  0  0  0  0  0  0  0  0
   -8.7739   -1.2763    4.7236 N   0  0  0  0  0  0  0  0  0  0  0  0
   -8.0283   -2.2063    5.3495 N   0  0  0  0  0  0  0  0  0  0  0  0
   -6.7092   -2.5337    4.8654 C   0  0  0  0  0  0  0  0  0  0  0  0
   -5.8738   -1.3194    4.4806 C   0  0  0  0  0  0  0  0  0  0  0  0
   -5.4773   -0.4677    5.5639 N   0  0  0  0  0  0  0  0  0  0  0  0
   -5.7275   -0.5563    6.9604 C   0  0  0  0  0  0  0  0  0  0  0  0
   -6.2647   -1.4040    7.6038 O   0  0  0  0  0  0  0  0  0  0  0  0
   -5.3069    0.6317    7.5306 N   0  0  0  0  0  0  0  0  0  0  0  0
   -3.9772    0.7140    8.0713 C   0  0  0  0  0  0  0  0  0  0  0  0
   -6.2278    1.7622    7.5647 C   0  0  0  0  0  0  0  0  0  0  0  0
   -6.1992    2.5078    6.2485 C   0  0  0  0  0  0  0  0  0  0  0  0
   -7.1660    2.2373    5.2677 C   0  0  0  0  0  0  0  0  0  0  0  0
   -7.0680    2.8112    4.0011 C   0  0  0  0  0  0  0  0  0  0  0  0
   -6.0088    3.6660    3.7045 C   0  0  0  0  0  0  0  0  0  0  0  0
   -5.0507    3.9540    4.6752 C   0  0  0  0  0  0  0  0  0  0  0  0
   -5.1455    3.3805    5.9430 C   0  0  0  0  0  0  0  0  0  0  0  0
   -8.7087   -3.7891    8.2045 H   0  0  0  0  0  0  0  0  0  0  0  0
   -7.2154   -3.9469    7.2888 H   0  0  0  0  0  0  0  0  0  0  0  0
   -8.6433   -4.8612    6.7979 H   0  0  0  0  0  0  0  0  0  0  0  0
   -6.8718   -3.1649    3.9849 H   0  0  0  0  0  0  0  0  0  0  0  0
   -6.1840   -3.1365    5.6100 H   0  0  0  0  0  0  0  0  0  0  0  0
   -4.9434   -1.6247    4.0109 H   0  0  0  0  0  0  0  0  0  0  0  0
   -6.3958   -0.6889    3.7527 H   0  0  0  0  0  0  0  0  0  0  0  0
   -5.0703    0.4373    5.3591 H   0  0  0  0  0  0  0  0  0  0  0  0
   -3.3588   -0.1017    7.6842 H   0  0  0  0  0  0  0  0  0  0  0  0
   -3.5246    1.6741    7.8198 H   0  0  0  0  0  0  0  0  0  0  0  0
   -4.0443    0.5950    9.1520 H   0  0  0  0  0  0  0  0  0  0  0  0
   -5.9734    2.4401    8.3780 H   0  0  0  0  0  0  0  0  0  0  0  0
   -7.2395    1.3840    7.7558 H   0  0  0  0  0  0  0  0  0  0  0  0
   -7.9861    1.5503    5.4768 H   0  0  0  0  0  0  0  0  0  0  0  0
   -7.8193    2.5881    3.2477 H   0  0  0  0  0  0  0  0  0  0  0  0
   -5.9341    4.1164    2.7180 H   0  0  0  0  0  0  0  0  0  0  0  0
   -4.2264    4.6247    4.4434 H   0  0  0  0  0  0  0  0  0  0  0  0
   -4.3840    3.6092    6.6849 H   0  0  0  0  0  0  0  0  0  0  0  0
  1  2  1  0
  2  3  2  0
  3  4  1  0
  4  5  2  0
  5  6  1  0
  6  7  1  0
  7  8  1  0
  8  9  1  0
  9 10  1  0
 10 11  2  0
 10 12  1  0
 12 13  1  0
 12 14  1  0
 14 15  1  0
 15 16  2  0
 16 17  1  0
 17 18  2  0
 18 19  1  0
 19 20  2  0
  6  2  1  0
 20 15  1  0
  1 21  1  0
  1 22  1  0
  1 23  1  0
  7 24  1  0
  7 25  1  0
  8 26  1  0
  8 27  1  0
  9 28  1  0
 13 29  1  0
 13 30  1  0
 13 31  1  0
 14 32  1  0
 14 33  1  0
 16 34  1  0
 17 35  1  0
 18 36  1  0
 19 37  1  0
 20 38  1  0
M  END
>  <Energy>  (482) 
-42.430983159831626

>  <compound_id>  (482) 
1800

>  <target_id>  (482) 
1

>  <reference_id>  (482) 
24

>  <inspiration_ids>  (482) 
[24, 65]

>  <energy_score>  (482) 
-1.5070756028266175

>  <distance_score>  (482) 
2.6808054238389403

>  <path>  (482) 
/opt/xchem-fragalysis-2/maxwin/BulkDock/SCRATCH/505732/C1800-P24/C1800-P24.minimised.mol

>  <scratch_subdir>  (482) 
/opt/xchem-fragalysis-2/maxwin/BulkDock/SCRATCH/505732/C1800-P24

>  <fragmenstein_runtime>  (482) 
2.642948627471924

>  <fragmenstein_outcome>  (482) 
too moved

>  <fragmenstein_mode>  (482) 
expansion

>  <fragmenstein_error>  (482) 


$$$$
C1800-P65
     RDKit          3D

 38 39  0  0  0  0  0  0  0  0999 V2000
   -8.3329   -3.5604    7.0759 C   0  0  0  0  0  0  0  0  0  0  0  0
   -8.3249   -2.3453    6.2387 C   0  0  0  0  0  0  0  0  0  0  0  0
   -8.8908   -1.1870    6.5138 N   0  0  0  0  0  0  0  0  0  0  0  0
   -8.7239   -0.4009    5.4038 N   0  0  0  0  0  0  0  0  0  0  0  0
   -8.0609   -1.0500    4.4585 N   0  0  0  0  0  0  0  0  0  0  0  0
   -7.7503   -2.2387    5.0016 N   0  0  0  0  0  0  0  0  0  0  0  0
   -6.9474   -3.1844    4.2697 C   0  0  0  0  0  0  0  0  0  0  0  0
   -5.6498   -2.6189    3.6856 C   0  0  0  0  0  0  0  0  0  0  0  0
   -4.8197   -1.9808    4.6739 N   0  0  0  0  0  0  0  0  0  0  0  0
   -4.6545   -2.2402    6.0522 C   0  0  0  0  0  0  0  0  0  0  0  0
   -5.0978   -3.1018    6.7363 O   0  0  0  0  0  0  0  0  0  0  0  0
   -3.9066   -1.2059    6.5859 N   0  0  0  0  0  0  0  0  0  0  0  0
   -4.1587    0.0964    7.1252 C   0  0  0  0  0  0  0  0  0  0  0  0
   -5.1060    0.1717    6.9956 C   0  0  0  0  0  0  0  0  0  0  0  0
   -5.5992    1.4082    5.9302 C   0  0  0  0  0  0  0  0  0  0  0  0
   -5.7489    1.2268    4.5528 C   0  0  0  0  0  0  0  0  0  0  0  0
   -6.1131    2.3033    3.7437 C   0  0  0  0  0  0  0  0  0  0  0  0
   -6.3239    3.5621    4.3022 C   0  0  0  0  0  0  0  0  0  0  0  0
   -6.1869    3.7463    5.6764 C   0  0  0  0  0  0  0  0  0  0  0  0
   -5.8328    2.6731    6.4922 C   0  0  0  0  0  0  0  0  0  0  0  0
   -8.6933   -3.3260    8.0821 H   0  0  0  0  0  0  0  0  0  0  0  0
   -7.3439   -4.0086    7.1751 H   0  0  0  0  0  0  0  0  0  0  0  0
   -9.0050   -4.3085    6.6458 H   0  0  0  0  0  0  0  0  0  0  0  0
   -7.5751   -3.5634    3.4562 H   0  0  0  0  0  0  0  0  0  0  0  0
   -6.7150   -4.0228    4.9311 H   0  0  0  0  0  0  0  0  0  0  0  0
   -5.0789   -3.4364    3.2420 H   0  0  0  0  0  0  0  0  0  0  0  0
   -5.8538   -1.8821    2.9023 H   0  0  0  0  0  0  0  0  0  0  0  0
   -4.2241   -1.2059    4.4124 H   0  0  0  0  0  0  0  0  0  0  0  0
   -3.0216    0.0266    7.3811 H   0  0  0  0  0  0  0  0  0  0  0  0
   -3.5542    0.9448    6.5178 H   0  0  0  0  0  0  0  0  0  0  0  0
   -3.9940    0.1353    8.3614 H   0  0  0  0  0  0  0  0  0  0  0  0
   -5.9797   -0.4382    6.5322 H   0  0  0  0  0  0  0  0  0  0  0  0
   -5.8025    0.0812    7.9520 H   0  0  0  0  0  0  0  0  0  0  0  0
   -5.6251    0.2645    4.0860 H   0  0  0  0  0  0  0  0  0  0  0  0
   -6.2507    2.1534    2.6756 H   0  0  0  0  0  0  0  0  0  0  0  0
   -6.6226    4.3935    3.6684 H   0  0  0  0  0  0  0  0  0  0  0  0
   -6.3797    4.7224    6.1146 H   0  0  0  0  0  0  0  0  0  0  0  0
   -5.7570    2.8252    7.5610 H   0  0  0  0  0  0  0  0  0  0  0  0
  1  2  1  0
  2  3  2  0
  3  4  1  0
  4  5  2  0
  5  6  1  0
  6  7  1  0
  7  8  1  0
  8  9  1  0
  9 10  1  0
 10 11  2  0
 10 12  1  0
 12 13  1  0
 12 14  1  0
 14 15  1  0
 15 16  2  0
 16 17  1  0
 17 18  2  0
 18 19  1  0
 19 20  2  0
  6  2  1  0
 20 15  1  0
  1 21  1  0
  1 22  1  0
  1 23  1  0
  7 24  1  0
  7 25  1  0
  8 26  1  0
  8 27  1  0
  9 28  1  0
 13 29  1  0
 13 30  1  0
 13 31  1  0
 14 32  1  0
 14 33  1  0
 16 34  1  0
 17 35  1  0
 18 36  1  0
 19 37  1  0
 20 38  1  0
M  END
>  <Energy>  (483) 
495.60832214338183

>  <compound_id>  (483) 
1800

>  <target_id>  (483) 
1

>  <reference_id>  (483) 
65

>  <inspiration_ids>  (483) 
[24, 65]

>  <energy_score>  (483) 
536.5322297003853

>  <distance_score>  (483) 
2.9095537937552494

>  <path>  (483) 
/opt/xchem-fragalysis-2/maxwin/BulkDock/SCRATCH/505732/C1800-P65/C1800-P65.minimised.mol

>  <scratch_subdir>  (483) 
/opt/xchem-fragalysis-2/maxwin/BulkDock/SCRATCH/505732/C1800-P65

>  <fragmenstein_runtime>  (483) 
4.005011081695557

>  <fragmenstein_outcome>  (483) 
too moved

>  <fragmenstein_mode>  (483) 
expansion

>  <fragmenstein_error>  (483) 


$$$$
C1800-P24
     RDKit          3D

 38 39  0  0  0  0  0  0  0  0999 V2000
   -7.3087    0.2431    7.6127 C   0  0  0  0  0  0  0  0  0  0  0  0
   -6.5052   -0.9465    7.2713 C   0  0  0  0  0  0  0  0  0  0  0  0
   -5.1949   -1.0088    7.1385 N   0  0  0  0  0  0  0  0  0  0  0  0
   -4.9046   -2.3017    6.7861 N   0  0  0  0  0  0  0  0  0  0  0  0
   -6.0061   -3.0360    6.7263 N   0  0  0  0  0  0  0  0  0  0  0  0
   -7.0121   -2.1970    7.0298 N   0  0  0  0  0  0  0  0  0  0  0  0
   -8.3722   -2.6801    7.1331 C   0  0  0  0  0  0  0  0  0  0  0  0
   -8.9785   -3.0891    5.7907 C   0  0  0  0  0  0  0  0  0  0  0  0
   -8.9298   -2.0086    4.8388 N   0  0  0  0  0  0  0  0  0  0  0  0
   -7.9796   -1.7176    3.7830 C   0  0  0  0  0  0  0  0  0  0  0  0
   -7.0597   -2.3347    3.3947 O   0  0  0  0  0  0  0  0  0  0  0  0
   -8.4451   -0.3883    3.4121 N   0  0  0  0  0  0  0  0  0  0  0  0
   -9.4344   -0.4851    2.2785 C   0  0  0  0  0  0  0  0  0  0  0  0
   -7.8308    0.6453    2.5054 C   0  0  0  0  0  0  0  0  0  0  0  0
   -6.7779    1.3822    3.3497 C   0  0  0  0  0  0  0  0  0  0  0  0
   -6.9334    2.7428    3.6541 C   0  0  0  0  0  0  0  0  0  0  0  0
   -6.0032    3.4035    4.4609 C   0  0  0  0  0  0  0  0  0  0  0  0
   -4.9166    2.7111    4.9881 C   0  0  0  0  0  0  0  0  0  0  0  0
   -4.7564    1.3600    4.6999 C   0  0  0  0  0  0  0  0  0  0  0  0
   -5.6676    0.7035    3.8739 C   0  0  0  0  0  0  0  0  0  0  0  0
   -6.6691    1.1274    7.6965 H   0  0  0  0  0  0  0  0  0  0  0  0
   -7.8176    0.1048    8.5716 H   0  0  0  0  0  0  0  0  0  0  0  0
   -8.0585    0.4420    6.8410 H   0  0  0  0  0  0  0  0  0  0  0  0
   -8.9769   -1.8926    7.5946 H   0  0  0  0  0  0  0  0  0  0  0  0
   -8.3624   -3.5338    7.8200 H   0  0  0  0  0  0  0  0  0  0  0  0
   -8.4184   -3.9264    5.3672 H   0  0  0  0  0  0  0  0  0  0  0  0
  -10.0239   -3.3864    5.9141 H   0  0  0  0  0  0  0  0  0  0  0  0
   -9.6445   -1.2931    4.8473 H   0  0  0  0  0  0  0  0  0  0  0  0
  -10.0963    0.3894    2.1934 H   0  0  0  0  0  0  0  0  0  0  0  0
  -10.1286   -1.2941    2.5524 H   0  0  0  0  0  0  0  0  0  0  0  0
   -9.0148   -0.8358    1.3223 H   0  0  0  0  0  0  0  0  0  0  0  0
   -7.2669    0.1805    1.6809 H   0  0  0  0  0  0  0  0  0  0  0  0
   -8.4972    1.4440    2.1420 H   0  0  0  0  0  0  0  0  0  0  0  0
   -7.7855    3.3012    3.2749 H   0  0  0  0  0  0  0  0  0  0  0  0
   -6.1336    4.4578    4.6899 H   0  0  0  0  0  0  0  0  0  0  0  0
   -4.2007    3.2186    5.6290 H   0  0  0  0  0  0  0  0  0  0  0  0
   -3.9379    0.7955    5.1332 H   0  0  0  0  0  0  0  0  0  0  0  0
   -5.5157   -0.3553    3.6736 H   0  0  0  0  0  0  0  0  0  0  0  0
  1  2  1  0
  2  3  2  0
  3  4  1  0
  4  5  2  0
  5  6  1  0
  6  7  1  0
  7  8  1  0
  8  9  1  0
  9 10  1  0
 10 11  2  0
 10 12  1  0
 12 13  1  0
 12 14  1  0
 14 15  1  0
 15 16  2  0
 16 17  1  0
 17 18  2  0
 18 19  1  0
 19 20  2  0
  6  2  1  0
 20 15  1  0
  1 21  1  0
  1 22  1  0
  1 23  1  0
  7 24  1  0
  7 25  1  0
  8 26  1  0
  8 27  1  0
  9 28  1  0
 13 29  1  0
 13 30  1  0
 13 31  1  0
 14 32  1  0
 14 33  1  0
 16 34  1  0
 17 35  1  0
 18 36  1  0
 19 37  1  0
 20 38  1  0
M  END
>  <Energy>  (484) 
12.746359145924636

>  <compound_id>  (484) 
1800

>  <target_id>  (484) 
1

>  <reference_id>  (484) 
24

>  <inspiration_ids>  (484) 
[24, 69]

>  <energy_score>  (484) 
53.67026670292927

>  <distance_score>  (484) 
2.8670801217417057

>  <path>  (484) 
/opt/xchem-fragalysis-2/maxwin/BulkDock/SCRATCH/505732/C1800-P24/C1800-P24.minimised.mol

>  <scratch_subdir>  (484) 
/opt/xchem-fragalysis-2/maxwin/BulkDock/SCRATCH/505732/C1800-P24

>  <fragmenstein_runtime>  (484) 
3.6663742065429688

>  <fragmenstein_outcome>  (484) 
too moved

>  <fragmenstein_mode>  (484) 
expansion

>  <fragmenstein_error>  (484) 


$$$$
C1800-P69
     RDKit          3D

 38 39  0  0  0  0  0  0  0  0999 V2000
   -9.6807   -0.6513    8.5728 C   0  0  0  0  0  0  0  0  0  0  0  0
   -8.2683   -0.8352    8.1828 C   0  0  0  0  0  0  0  0  0  0  0  0
   -7.2769    0.0122    8.3825 N   0  0  0  0  0  0  0  0  0  0  0  0
   -6.1498   -0.5803    7.8737 N   0  0  0  0  0  0  0  0  0  0  0  0
   -6.4319   -1.7668    7.3603 N   0  0  0  0  0  0  0  0  0  0  0  0
   -7.7558   -1.9366    7.5499 N   0  0  0  0  0  0  0  0  0  0  0  0
   -8.4150   -3.1275    7.0543 C   0  0  0  0  0  0  0  0  0  0  0  0
   -9.2094   -2.9010    5.7600 C   0  0  0  0  0  0  0  0  0  0  0  0
   -8.4959   -2.0143    4.8819 N   0  0  0  0  0  0  0  0  0  0  0  0
   -7.3972   -2.2618    3.9775 C   0  0  0  0  0  0  0  0  0  0  0  0
   -6.8671   -3.2654    3.6773 O   0  0  0  0  0  0  0  0  0  0  0  0
   -7.0810   -0.8924    3.6265 N   0  0  0  0  0  0  0  0  0  0  0  0
   -7.8188   -0.4960    2.3724 C   0  0  0  0  0  0  0  0  0  0  0  0
   -5.9196   -0.3243    2.8684 C   0  0  0  0  0  0  0  0  0  0  0  0
   -5.6007    1.1076    3.2907 C   0  0  0  0  0  0  0  0  0  0  0  0
   -4.8260    1.9224    2.4580 C   0  0  0  0  0  0  0  0  0  0  0  0
   -4.5101    3.2271    2.8429 C   0  0  0  0  0  0  0  0  0  0  0  0
   -4.9661    3.7340    4.0590 C   0  0  0  0  0  0  0  0  0  0  0  0
   -5.7313    2.9340    4.9010 C   0  0  0  0  0  0  0  0  0  0  0  0
   -6.0268    1.6219    4.5302 C   0  0  0  0  0  0  0  0  0  0  0  0
   -9.9026    0.4140    8.6928 H   0  0  0  0  0  0  0  0  0  0  0  0
   -9.8840   -1.1440    9.5270 H   0  0  0  0  0  0  0  0  0  0  0  0
  -10.3685   -1.0478    7.8222 H   0  0  0  0  0  0  0  0  0  0  0  0
   -7.6314   -3.8753    6.8779 H   0  0  0  0  0  0  0  0  0  0  0  0
   -9.0581   -3.5164    7.8489 H   0  0  0  0  0  0  0  0  0  0  0  0
   -9.3747   -3.8553    5.2507 H   0  0  0  0  0  0  0  0  0  0  0  0
  -10.1794   -2.4412    5.9684 H   0  0  0  0  0  0  0  0  0  0  0  0
   -8.6390   -1.0151    4.9629 H   0  0  0  0  0  0  0  0  0  0  0  0
   -7.7906    0.5714    2.1070 H   0  0  0  0  0  0  0  0  0  0  0  0
   -8.8825   -0.6692    2.5957 H   0  0  0  0  0  0  0  0  0  0  0  0
   -7.6326   -1.1773    1.5265 H   0  0  0  0  0  0  0  0  0  0  0  0
   -5.7888   -0.5314    1.7906 H   0  0  0  0  0  0  0  0  0  0  0  0
   -5.0768   -0.9016    3.2843 H   0  0  0  0  0  0  0  0  0  0  0  0
   -4.4569    1.5480    1.5060 H   0  0  0  0  0  0  0  0  0  0  0  0
   -3.9023    3.8521    2.1931 H   0  0  0  0  0  0  0  0  0  0  0  0
   -4.7146    4.7502    4.3518 H   0  0  0  0  0  0  0  0  0  0  0  0
   -6.0895    3.3236    5.8503 H   0  0  0  0  0  0  0  0  0  0  0  0
   -6.5947    0.9998    5.2210 H   0  0  0  0  0  0  0  0  0  0  0  0
  1  2  1  0
  2  3  2  0
  3  4  1  0
  4  5  2  0
  5  6  1  0
  6  7  1  0
  7  8  1  0
  8  9  1  0
  9 10  1  0
 10 11  2  0
 10 12  1  0
 12 13  1  0
 12 14  1  0
 14 15  1  0
 15 16  2  0
 16 17  1  0
 17 18  2  0
 18 19  1  0
 19 20  2  0
  6  2  1  0
 20 15  1  0
  1 21  1  0
  1 22  1  0
  1 23  1  0
  7 24  1  0
  7 25  1  0
  8 26  1  0
  8 27  1  0
  9 28  1  0
 13 29  1  0
 13 30  1  0
 13 31  1  0
 14 32  1  0
 14 33  1  0
 16 34  1  0
 17 35  1  0
 18 36  1  0
 19 37  1  0
 20 38  1  0
M  END
>  <Energy>  (485) 
17.195327967741513

>  <compound_id>  (485) 
1800

>  <target_id>  (485) 
1

>  <reference_id>  (485) 
69

>  <inspiration_ids>  (485) 
[24, 69]

>  <energy_score>  (485) 
58.119235524747126

>  <distance_score>  (485) 
2.800501082717582

>  <path>  (485) 
/opt/xchem-fragalysis-2/maxwin/BulkDock/SCRATCH/505732/C1800-P69/C1800-P69.minimised.mol

>  <scratch_subdir>  (485) 
/opt/xchem-fragalysis-2/maxwin/BulkDock/SCRATCH/505732/C1800-P69

>  <fragmenstein_runtime>  (485) 
3.735103130340576

>  <fragmenstein_outcome>  (485) 
too moved

>  <fragmenstein_mode>  (485) 
expansion

>  <fragmenstein_error>  (485) 


$$$$
C1801-P24
     RDKit          3D

 35 37  0  0  0  0  0  0  0  0999 V2000
  -11.0261   -0.4758    9.6605 C   0  0  0  0  0  0  0  0  0  0  0  0
   -9.7708   -1.1157    9.4392 O   0  0  0  0  0  0  0  0  0  0  0  0
   -8.9715   -0.3814    8.6245 C   0  0  0  0  0  0  0  0  0  0  0  0
   -8.5140    0.8588    9.0702 C   0  0  0  0  0  0  0  0  0  0  0  0
   -7.7457    1.6730    8.2539 C   0  0  0  0  0  0  0  0  0  0  0  0
   -7.3873    1.2404    6.9806 C   0  0  0  0  0  0  0  0  0  0  0  0
   -6.2653    2.0110    6.2760 C   0  0  0  0  0  0  0  0  0  0  0  0
   -5.1160    2.3596    7.1549 C   0  0  0  0  0  0  0  0  0  0  0  0
   -4.1830    1.4061    7.3083 C   0  0  0  0  0  0  0  0  0  0  0  0
   -4.2376    0.3069    6.4615 N   0  0  0  0  0  0  0  0  0  0  0  0
   -3.6086   -0.8841    6.5422 N   0  0  0  0  0  0  0  0  0  0  0  0
   -4.1260   -1.6844    5.6151 N   0  0  0  0  0  0  0  0  0  0  0  0
   -5.0251   -0.9687    4.8716 C   0  0  0  0  0  0  0  0  0  0  0  0
   -5.9419   -1.5874    3.9041 C   0  0  0  0  0  0  0  0  0  0  0  0
   -5.0392    0.3240    5.3158 C   0  0  0  0  0  0  0  0  0  0  0  0
   -5.9027    1.4567    5.0921 C   0  0  0  0  0  0  0  0  0  0  0  0
   -7.8497   -0.0422    6.5634 C   0  0  0  0  0  0  0  0  0  0  0  0
   -8.6017   -0.8704    7.3852 C   0  0  0  0  0  0  0  0  0  0  0  0
   -8.8462   -2.1591    6.9897 O   0  0  0  0  0  0  0  0  0  0  0  0
  -10.0959   -2.2678    6.3129 C   0  0  0  0  0  0  0  0  0  0  0  0
  -10.9214    0.5197   10.1040 H   0  0  0  0  0  0  0  0  0  0  0  0
  -11.5996   -0.4142    8.7296 H   0  0  0  0  0  0  0  0  0  0  0  0
  -11.5922   -1.0778   10.3743 H   0  0  0  0  0  0  0  0  0  0  0  0
   -8.7611    1.2026   10.0699 H   0  0  0  0  0  0  0  0  0  0  0  0
   -7.4059    2.6286    8.6429 H   0  0  0  0  0  0  0  0  0  0  0  0
   -5.1512    3.2645    7.7491 H   0  0  0  0  0  0  0  0  0  0  0  0
   -3.4023    1.4246    8.0510 H   0  0  0  0  0  0  0  0  0  0  0  0
   -6.2224   -2.5961    4.2184 H   0  0  0  0  0  0  0  0  0  0  0  0
   -5.4939   -1.5917    2.9088 H   0  0  0  0  0  0  0  0  0  0  0  0
   -6.8730   -1.0284    3.7822 H   0  0  0  0  0  0  0  0  0  0  0  0
   -6.6679    1.2828    4.3369 H   0  0  0  0  0  0  0  0  0  0  0  0
   -7.6001   -0.4490    5.6005 H   0  0  0  0  0  0  0  0  0  0  0  0
  -10.2195   -3.3092    6.0011 H   0  0  0  0  0  0  0  0  0  0  0  0
  -10.9308   -2.0102    6.9712 H   0  0  0  0  0  0  0  0  0  0  0  0
  -10.1138   -1.6403    5.4152 H   0  0  0  0  0  0  0  0  0  0  0  0
  1  2  1  0
  2  3  1  0
  3  4  2  0
  4  5  1  0
  5  6  2  0
  6  7  1  0
  7  8  1  0
  8  9  2  0
  9 10  1  0
 10 11  1  0
 11 12  2  0
 12 13  1  0
 13 14  1  0
 13 15  2  0
 15 16  1  0
  6 17  1  0
 17 18  2  0
 18 19  1  0
 19 20  1  0
 18  3  1  0
 16  7  2  0
 15 10  1  0
  1 21  1  0
  1 22  1  0
  1 23  1  0
  4 24  1  0
  5 25  1  0
  8 26  1  0
  9 27  1  0
 14 28  1  0
 14 29  1  0
 14 30  1  0
 16 31  1  0
 17 32  1  0
 20 33  1  0
 20 34  1  0
 20 35  1  0
M  END
>  <Energy>  (486) 
138.02624225530531

>  <compound_id>  (486) 
1801

>  <target_id>  (486) 
1

>  <reference_id>  (486) 
24

>  <inspiration_ids>  (486) 
[24, 73]

>  <energy_score>  (486) 
43.53849924767667

>  <distance_score>  (486) 
2.219240756680695

>  <path>  (486) 
/opt/xchem-fragalysis-2/maxwin/BulkDock/SCRATCH/505732/C1801-P24/C1801-P24.minimised.mol

>  <scratch_subdir>  (486) 
/opt/xchem-fragalysis-2/maxwin/BulkDock/SCRATCH/505732/C1801-P24

>  <fragmenstein_runtime>  (486) 
34.68002724647522

>  <fragmenstein_outcome>  (486) 
too moved

>  <fragmenstein_mode>  (486) 
expansion

>  <fragmenstein_error>  (486) 


$$$$
C1801-P73
     RDKit          3D

 35 37  0  0  0  0  0  0  0  0999 V2000
  -10.9233   -0.6056    9.5768 C   0  0  0  0  0  0  0  0  0  0  0  0
   -9.6891   -1.2751    9.3171 O   0  0  0  0  0  0  0  0  0  0  0  0
   -8.9421   -0.6062    8.4043 C   0  0  0  0  0  0  0  0  0  0  0  0
   -8.4156    0.6284    8.7703 C   0  0  0  0  0  0  0  0  0  0  0  0
   -7.7054    1.3790    7.8561 C   0  0  0  0  0  0  0  0  0  0  0  0
   -7.4447    0.8710    6.5761 C   0  0  0  0  0  0  0  0  0  0  0  0
   -6.3213    1.5455    5.7793 C   0  0  0  0  0  0  0  0  0  0  0  0
   -5.3373    2.3237    6.5892 C   0  0  0  0  0  0  0  0  0  0  0  0
   -4.3576    1.6156    7.1819 C   0  0  0  0  0  0  0  0  0  0  0  0
   -4.2088    0.2770    6.8313 N   0  0  0  0  0  0  0  0  0  0  0  0
   -3.4531   -0.6907    7.3860 N   0  0  0  0  0  0  0  0  0  0  0  0
   -3.7738   -1.8418    6.8054 N   0  0  0  0  0  0  0  0  0  0  0  0
   -4.6574   -1.5916    5.7890 C   0  0  0  0  0  0  0  0  0  0  0  0
   -5.3125   -2.6765    5.0468 C   0  0  0  0  0  0  0  0  0  0  0  0
   -4.8716   -0.2430    5.7120 C   0  0  0  0  0  0  0  0  0  0  0  0
   -5.7295    0.6403    4.9588 C   0  0  0  0  0  0  0  0  0  0  0  0
   -7.9849   -0.4000    6.2291 C   0  0  0  0  0  0  0  0  0  0  0  0
   -8.6972   -1.1529    7.1524 C   0  0  0  0  0  0  0  0  0  0  0  0
   -9.0403   -2.4417    6.8392 O   0  0  0  0  0  0  0  0  0  0  0  0
  -10.2916   -2.4747    6.1603 C   0  0  0  0  0  0  0  0  0  0  0  0
  -11.3731   -1.0581   10.4641 H   0  0  0  0  0  0  0  0  0  0  0  0
  -10.8024    0.4610    9.7928 H   0  0  0  0  0  0  0  0  0  0  0  0
  -11.6105   -0.7362    8.7347 H   0  0  0  0  0  0  0  0  0  0  0  0
   -8.5637    1.0118    9.7761 H   0  0  0  0  0  0  0  0  0  0  0  0
   -7.3132    2.3363    8.1884 H   0  0  0  0  0  0  0  0  0  0  0  0
   -5.5116    3.3761    6.7811 H   0  0  0  0  0  0  0  0  0  0  0  0
   -3.6562    2.0163    7.8978 H   0  0  0  0  0  0  0  0  0  0  0  0
   -5.9465   -2.2998    4.2389 H   0  0  0  0  0  0  0  0  0  0  0  0
   -5.9384   -3.2734    5.7175 H   0  0  0  0  0  0  0  0  0  0  0  0
   -4.5666   -3.3308    4.5972 H   0  0  0  0  0  0  0  0  0  0  0  0
   -6.3015    0.1408    4.1809 H   0  0  0  0  0  0  0  0  0  0  0  0
   -7.7979   -0.8625    5.2673 H   0  0  0  0  0  0  0  0  0  0  0  0
  -10.4982   -3.5140    5.8872 H   0  0  0  0  0  0  0  0  0  0  0  0
  -11.1033   -2.1285    6.8077 H   0  0  0  0  0  0  0  0  0  0  0  0
  -10.2644   -1.8858    5.2369 H   0  0  0  0  0  0  0  0  0  0  0  0
  1  2  1  0
  2  3  1  0
  3  4  2  0
  4  5  1  0
  5  6  2  0
  6  7  1  0
  7  8  1  0
  8  9  2  0
  9 10  1  0
 10 11  1  0
 11 12  2  0
 12 13  1  0
 13 14  1  0
 13 15  2  0
 15 16  1  0
  6 17  1  0
 17 18  2  0
 18 19  1  0
 19 20  1  0
 18  3  1  0
 16  7  2  0
 15 10  1  0
  1 21  1  0
  1 22  1  0
  1 23  1  0
  4 24  1  0
  5 25  1  0
  8 26  1  0
  9 27  1  0
 14 28  1  0
 14 29  1  0
 14 30  1  0
 16 31  1  0
 17 32  1  0
 20 33  1  0
 20 34  1  0
 20 35  1  0
M  END
>  <Energy>  (487) 
137.50775954856292

>  <compound_id>  (487) 
1801

>  <target_id>  (487) 
1

>  <reference_id>  (487) 
73

>  <inspiration_ids>  (487) 
[24, 73]

>  <energy_score>  (487) 
43.02001654093243

>  <distance_score>  (487) 
2.0436897737936897

>  <path>  (487) 
/opt/xchem-fragalysis-2/maxwin/BulkDock/SCRATCH/505732/C1801-P73/C1801-P73.minimised.mol

>  <scratch_subdir>  (487) 
/opt/xchem-fragalysis-2/maxwin/BulkDock/SCRATCH/505732/C1801-P73

>  <fragmenstein_runtime>  (487) 
36.765833139419556

>  <fragmenstein_outcome>  (487) 
too moved

>  <fragmenstein_mode>  (487) 
expansion

>  <fragmenstein_error>  (487) 


$$$$
C1801-P24
     RDKit          3D

 35 37  0  0  0  0  0  0  0  0999 V2000
  -10.9400   -0.8114    8.3252 C   0  0  0  0  0  0  0  0  0  0  0  0
   -9.8214   -1.6713    8.0796 O   0  0  0  0  0  0  0  0  0  0  0  0
   -8.8669   -1.0302    7.3606 C   0  0  0  0  0  0  0  0  0  0  0  0
   -8.2238    0.0364    7.9842 C   0  0  0  0  0  0  0  0  0  0  0  0
   -7.3784    0.8525    7.2591 C   0  0  0  0  0  0  0  0  0  0  0  0
   -7.1182    0.5895    5.9102 C   0  0  0  0  0  0  0  0  0  0  0  0
   -5.9905    1.3354    5.2024 C   0  0  0  0  0  0  0  0  0  0  0  0
   -5.2698    2.4203    5.9443 C   0  0  0  0  0  0  0  0  0  0  0  0
   -4.3491    1.9963    6.8443 C   0  0  0  0  0  0  0  0  0  0  0  0
   -4.0623    0.6213    6.8957 N   0  0  0  0  0  0  0  0  0  0  0  0
   -3.4213   -0.1213    7.8243 N   0  0  0  0  0  0  0  0  0  0  0  0
   -3.6919   -1.3968    7.5830 N   0  0  0  0  0  0  0  0  0  0  0  0
   -4.4343   -1.4672    6.4343 C   0  0  0  0  0  0  0  0  0  0  0  0
   -5.1343   -2.6999    6.0689 C   0  0  0  0  0  0  0  0  0  0  0  0
   -4.4739   -0.2282    5.8552 C   0  0  0  0  0  0  0  0  0  0  0  0
   -5.0933    0.4269    4.7274 C   0  0  0  0  0  0  0  0  0  0  0  0
   -7.7258   -0.5472    5.3218 C   0  0  0  0  0  0  0  0  0  0  0  0
   -8.5776   -1.3874    6.0466 C   0  0  0  0  0  0  0  0  0  0  0  0
   -9.0247   -2.4638    5.3346 O   0  0  0  0  0  0  0  0  0  0  0  0
   -9.9395   -3.3553    5.9478 C   0  0  0  0  0  0  0  0  0  0  0  0
  -10.8541   -0.3783    9.3269 H   0  0  0  0  0  0  0  0  0  0  0  0
  -11.0441   -0.0135    7.5790 H   0  0  0  0  0  0  0  0  0  0  0  0
  -11.8556   -1.4083    8.2840 H   0  0  0  0  0  0  0  0  0  0  0  0
   -8.4165    0.2547    9.0316 H   0  0  0  0  0  0  0  0  0  0  0  0
   -6.9227    1.6851    7.7864 H   0  0  0  0  0  0  0  0  0  0  0  0
   -5.5841    3.4503    5.8317 H   0  0  0  0  0  0  0  0  0  0  0  0
   -3.8479    2.6325    7.5606 H   0  0  0  0  0  0  0  0  0  0  0  0
   -5.9273   -2.9176    6.7907 H   0  0  0  0  0  0  0  0  0  0  0  0
   -5.5852   -2.6449    5.0764 H   0  0  0  0  0  0  0  0  0  0  0  0
   -4.4217   -3.5236    6.1016 H   0  0  0  0  0  0  0  0  0  0  0  0
   -4.3319    0.7944    4.0353 H   0  0  0  0  0  0  0  0  0  0  0  0
   -7.5031   -0.8075    4.2890 H   0  0  0  0  0  0  0  0  0  0  0  0
   -9.4877   -3.8131    6.8315 H   0  0  0  0  0  0  0  0  0  0  0  0
  -10.8894   -2.8631    6.1736 H   0  0  0  0  0  0  0  0  0  0  0  0
  -10.1481   -4.1587    5.2354 H   0  0  0  0  0  0  0  0  0  0  0  0
  1  2  1  0
  2  3  1  0
  3  4  2  0
  4  5  1  0
  5  6  2  0
  6  7  1  0
  7  8  1  0
  8  9  2  0
  9 10  1  0
 10 11  1  0
 11 12  2  0
 12 13  1  0
 13 14  1  0
 13 15  2  0
 15 16  1  0
  6 17  1  0
 17 18  2  0
 18 19  1  0
 19 20  1  0
 18  3  1  0
 16  7  2  0
 15 10  1  0
  1 21  1  0
  1 22  1  0
  1 23  1  0
  4 24  1  0
  5 25  1  0
  8 26  1  0
  9 27  1  0
 14 28  1  0
 14 29  1  0
 14 30  1  0
 16 31  1  0
 17 32  1  0
 20 33  1  0
 20 34  1  0
 20 35  1  0
M  END
>  <Energy>  (488) 
144.23963503555956

>  <compound_id>  (488) 
1801

>  <target_id>  (488) 
1

>  <reference_id>  (488) 
24

>  <inspiration_ids>  (488) 
[24, 74]

>  <energy_score>  (488) 
43.82464937554721

>  <distance_score>  (488) 
2.1167759819222605

>  <path>  (488) 
/opt/xchem-fragalysis-2/maxwin/BulkDock/SCRATCH/505732/C1801-P24/C1801-P24.minimised.mol

>  <scratch_subdir>  (488) 
/opt/xchem-fragalysis-2/maxwin/BulkDock/SCRATCH/505732/C1801-P24

>  <fragmenstein_runtime>  (488) 
20.1584951877594

>  <fragmenstein_outcome>  (488) 
too moved

>  <fragmenstein_mode>  (488) 
expansion

>  <fragmenstein_error>  (488) 


$$$$
C1801-P74
     RDKit          3D

 35 37  0  0  0  0  0  0  0  0999 V2000
  -10.2454   -0.7708    9.2452 C   0  0  0  0  0  0  0  0  0  0  0  0
   -9.1689   -1.6489    8.9053 O   0  0  0  0  0  0  0  0  0  0  0  0
   -8.4951   -1.1636    7.8308 C   0  0  0  0  0  0  0  0  0  0  0  0
   -7.5433   -0.1711    8.0499 C   0  0  0  0  0  0  0  0  0  0  0  0
   -7.0570    0.5445    6.9720 C   0  0  0  0  0  0  0  0  0  0  0  0
   -7.5377    0.2694    5.6884 C   0  0  0  0  0  0  0  0  0  0  0  0
   -7.0893    1.0817    4.5031 C   0  0  0  0  0  0  0  0  0  0  0  0
   -6.1206    2.2005    4.6323 C   0  0  0  0  0  0  0  0  0  0  0  0
   -4.8230    1.8727    4.4482 C   0  0  0  0  0  0  0  0  0  0  0  0
   -4.5095    0.5324    4.1645 N   0  0  0  0  0  0  0  0  0  0  0  0
   -3.3606   -0.1612    4.2320 N   0  0  0  0  0  0  0  0  0  0  0  0
   -3.6644   -1.4485    4.3132 N   0  0  0  0  0  0  0  0  0  0  0  0
   -5.0034   -1.5855    4.0961 C   0  0  0  0  0  0  0  0  0  0  0  0
   -5.6838   -2.8705    4.2950 C   0  0  0  0  0  0  0  0  0  0  0  0
   -5.5084   -0.3564    3.7703 C   0  0  0  0  0  0  0  0  0  0  0  0
   -6.7655    0.2621    3.4672 C   0  0  0  0  0  0  0  0  0  0  0  0
   -8.3900   -0.8536    5.4941 C   0  0  0  0  0  0  0  0  0  0  0  0
   -8.8400   -1.6111    6.5625 C   0  0  0  0  0  0  0  0  0  0  0  0
   -9.6420   -2.7151    6.4972 O   0  0  0  0  0  0  0  0  0  0  0  0
   -9.9477   -3.2164    5.2097 C   0  0  0  0  0  0  0  0  0  0  0  0
   -9.9123    0.2673    9.3595 H   0  0  0  0  0  0  0  0  0  0  0  0
  -11.0427   -0.8303    8.4965 H   0  0  0  0  0  0  0  0  0  0  0  0
  -10.6520   -1.0858   10.2108 H   0  0  0  0  0  0  0  0  0  0  0  0
   -7.2558    0.0869    9.0644 H   0  0  0  0  0  0  0  0  0  0  0  0
   -6.3565    1.3506    7.1589 H   0  0  0  0  0  0  0  0  0  0  0  0
   -6.4723    3.1970    4.8680 H   0  0  0  0  0  0  0  0  0  0  0  0
   -4.0086    2.5751    4.5282 H   0  0  0  0  0  0  0  0  0  0  0  0
   -5.0460   -3.6976    3.9683 H   0  0  0  0  0  0  0  0  0  0  0  0
   -5.9203   -3.0196    5.3529 H   0  0  0  0  0  0  0  0  0  0  0  0
   -6.6142   -2.9237    3.7217 H   0  0  0  0  0  0  0  0  0  0  0  0
   -6.7101    0.7233    2.4762 H   0  0  0  0  0  0  0  0  0  0  0  0
   -8.7193   -1.0936    4.4882 H   0  0  0  0  0  0  0  0  0  0  0  0
  -10.4733   -4.1658    5.3365 H   0  0  0  0  0  0  0  0  0  0  0  0
  -10.6092   -2.5305    4.6710 H   0  0  0  0  0  0  0  0  0  0  0  0
   -9.0411   -3.4195    4.6305 H   0  0  0  0  0  0  0  0  0  0  0  0
  1  2  1  0
  2  3  1  0
  3  4  2  0
  4  5  1  0
  5  6  2  0
  6  7  1  0
  7  8  1  0
  8  9  2  0
  9 10  1  0
 10 11  1  0
 11 12  2  0
 12 13  1  0
 13 14  1  0
 13 15  2  0
 15 16  1  0
  6 17  1  0
 17 18  2  0
 18 19  1  0
 19 20  1  0
 18  3  1  0
 16  7  2  0
 15 10  1  0
  1 21  1  0
  1 22  1  0
  1 23  1  0
  4 24  1  0
  5 25  1  0
  8 26  1  0
  9 27  1  0
 14 28  1  0
 14 29  1  0
 14 30  1  0
 16 31  1  0
 17 32  1  0
 20 33  1  0
 20 34  1  0
 20 35  1  0
M  END
>  <Energy>  (489) 
141.40256041584001

>  <compound_id>  (489) 
1801

>  <target_id>  (489) 
1

>  <reference_id>  (489) 
74

>  <inspiration_ids>  (489) 
[24, 74]

>  <energy_score>  (489) 
40.987574755828575

>  <distance_score>  (489) 
2.296276391813865

>  <path>  (489) 
/opt/xchem-fragalysis-2/maxwin/BulkDock/SCRATCH/505732/C1801-P74/C1801-P74.minimised.mol

>  <scratch_subdir>  (489) 
/opt/xchem-fragalysis-2/maxwin/BulkDock/SCRATCH/505732/C1801-P74

>  <fragmenstein_runtime>  (489) 
20.779990673065186

>  <fragmenstein_outcome>  (489) 
too moved

>  <fragmenstein_mode>  (489) 
expansion

>  <fragmenstein_error>  (489) 


$$$$
C1806-P24
     RDKit          3D

 37 41  0  0  0  0  0  0  0  0999 V2000
   -6.9636    2.0997    6.0017 O   0  0  0  0  0  0  0  0  0  0  0  0
   -6.1491    1.6649    7.3563 S   0  0  0  0  0  6  0  0  0  0  0  0
   -4.6856    0.8987    6.7533 C   0  0  0  0  0  0  0  0  0  0  0  0
   -4.2697    1.2846    5.4126 C   0  0  0  0  0  0  0  0  0  0  0  0
   -4.4136    0.3656    4.3717 C   0  0  0  0  0  0  0  0  0  0  0  0
   -4.4695    0.8337    3.0642 C   0  0  0  0  0  0  0  0  0  0  0  0
   -4.3432    2.1987    2.8081 C   0  0  0  0  0  0  0  0  0  0  0  0
   -4.1441    3.1010    3.8530 C   0  0  0  0  0  0  0  0  0  0  0  0
   -4.1093    2.6467    5.1644 C   0  0  0  0  0  0  0  0  0  0  0  0
   -4.2950   -0.4041    7.4238 C   0  0  0  0  0  0  0  0  0  0  0  0
   -5.5505   -0.6443    8.3271 C   0  0  0  0  0  0  0  0  0  0  0  0
   -6.7729    0.0349    7.6697 C   0  0  0  0  0  0  0  0  0  0  0  0
   -7.0619   -0.8031    6.2519 C   0  0  0  0  0  0  0  0  0  0  0  0
   -8.5186   -0.9395    6.2576 C   0  0  0  0  0  0  0  0  0  0  0  0
   -9.5022   -1.0849    5.3502 N   0  0  0  0  0  0  0  0  0  0  0  0
  -10.6309   -0.5950    5.9117 N   0  0  0  0  0  0  0  0  0  0  0  0
  -10.2991   -0.0097    7.1010 N   0  0  0  0  0  0  0  0  0  0  0  0
  -10.9302    0.8572    7.9771 C   0  0  0  0  0  0  0  0  0  0  0  0
  -10.2150    1.3742    9.0010 C   0  0  0  0  0  0  0  0  0  0  0  0
   -8.7654    1.0989    9.1059 C   0  0  0  0  0  0  0  0  0  0  0  0
   -8.1684    0.2388    8.2560 C   0  0  0  0  0  0  0  0  0  0  0  0
   -9.0269   -0.3651    7.3506 C   0  0  0  0  0  0  0  0  0  0  0  0
   -6.0887    2.5567    8.3686 H   0  0  0  0  0  0  0  0  0  0  0  0
   -4.5848   -0.6891    4.5543 H   0  0  0  0  0  0  0  0  0  0  0  0
   -4.6409    0.1438    2.2422 H   0  0  0  0  0  0  0  0  0  0  0  0
   -4.4036    2.5669    1.7866 H   0  0  0  0  0  0  0  0  0  0  0  0
   -4.0504    4.1633    3.6431 H   0  0  0  0  0  0  0  0  0  0  0  0
   -4.0408    3.3680    5.9732 H   0  0  0  0  0  0  0  0  0  0  0  0
   -3.3904   -0.2785    8.0228 H   0  0  0  0  0  0  0  0  0  0  0  0
   -4.1600   -1.2149    6.7060 H   0  0  0  0  0  0  0  0  0  0  0  0
   -5.7224   -1.7093    8.4373 H   0  0  0  0  0  0  0  0  0  0  0  0
   -5.3660   -0.2116    9.3138 H   0  0  0  0  0  0  0  0  0  0  0  0
   -6.5944   -1.7929    6.2731 H   0  0  0  0  0  0  0  0  0  0  0  0
   -6.7532   -0.2615    5.3604 H   0  0  0  0  0  0  0  0  0  0  0  0
  -11.9683    1.0807    7.7810 H   0  0  0  0  0  0  0  0  0  0  0  0
  -10.6543    2.0677    9.7104 H   0  0  0  0  0  0  0  0  0  0  0  0
   -8.1949    1.7559    9.7468 H   0  0  0  0  0  0  0  0  0  0  0  0
  1  2  2  0
  2  3  2  0
  3  4  1  0
  4  5  2  0
  5  6  1  0
  6  7  2  0
  7  8  1  0
  8  9  2  0
  3 10  1  0
 10 11  1  0
 11 12  1  0
 12 13  1  0
 13 14  1  0
 14 15  1  0
 15 16  2  0
 16 17  1  0
 17 18  1  0
 18 19  2  0
 19 20  1  0
 20 21  2  0
 21 22  1  0
 12  2  1  0
 22 14  2  0
  9  4  1  0
 21 12  1  0
 22 17  1  0
  2 23  1  0
  5 24  1  0
  6 25  1  0
  7 26  1  0
  8 27  1  0
  9 28  1  0
 10 29  1  0
 10 30  1  0
 11 31  1  0
 11 32  1  0
 13 33  1  0
 13 34  1  0
 18 35  1  0
 19 36  1  0
 20 37  1  0
M  END
>  <Energy>  (490) 
164.07959866274783

>  <compound_id>  (490) 
1806

>  <target_id>  (490) 
1

>  <reference_id>  (490) 
24

>  <inspiration_ids>  (490) 
[24, 181]

>  <energy_score>  (490) 
-26.275907843634826

>  <distance_score>  (490) 
2.55873220686717

>  <path>  (490) 
/opt/xchem-fragalysis-2/maxwin/BulkDock/SCRATCH/505732/C1806-P24/C1806-P24.minimised.mol

>  <scratch_subdir>  (490) 
/opt/xchem-fragalysis-2/maxwin/BulkDock/SCRATCH/505732/C1806-P24

>  <fragmenstein_runtime>  (490) 
5.440584421157837

>  <fragmenstein_outcome>  (490) 
too moved

>  <fragmenstein_mode>  (490) 
expansion

>  <fragmenstein_error>  (490) 


$$$$
C1806-P181
     RDKit          3D

 37 41  0  0  0  0  0  0  0  0999 V2000
   -4.3026   -1.7430    8.1268 O   0  0  0  0  0  0  0  0  0  0  0  0
   -5.3736   -0.5355    7.8846 S   0  0  0  0  0  6  0  0  0  0  0  0
   -4.6702    0.1396    6.4191 C   0  0  0  0  0  0  0  0  0  0  0  0
   -4.9588    1.5098    6.0040 C   0  0  0  0  0  0  0  0  0  0  0  0
   -5.6770    1.6942    4.8041 C   0  0  0  0  0  0  0  0  0  0  0  0
   -6.0142    2.9676    4.3779 C   0  0  0  0  0  0  0  0  0  0  0  0
   -5.6298    4.0566    5.1486 C   0  0  0  0  0  0  0  0  0  0  0  0
   -4.9281    3.8703    6.3456 C   0  0  0  0  0  0  0  0  0  0  0  0
   -4.6001    2.5912    6.7916 C   0  0  0  0  0  0  0  0  0  0  0  0
   -4.4549   -0.8934    5.3542 C   0  0  0  0  0  0  0  0  0  0  0  0
   -5.7995   -1.6412    5.4984 C   0  0  0  0  0  0  0  0  0  0  0  0
   -6.5648   -1.2603    6.8399 C   0  0  0  0  0  0  0  0  0  0  0  0
   -7.4499   -2.5261    7.2434 C   0  0  0  0  0  0  0  0  0  0  0  0
   -8.7692   -2.1614    6.6532 C   0  0  0  0  0  0  0  0  0  0  0  0
  -10.0309   -2.6170    6.5457 N   0  0  0  0  0  0  0  0  0  0  0  0
  -10.8251   -1.5525    6.2475 N   0  0  0  0  0  0  0  0  0  0  0  0
  -10.0758   -0.4161    6.3511 N   0  0  0  0  0  0  0  0  0  0  0  0
  -10.3271    0.9400    6.4881 C   0  0  0  0  0  0  0  0  0  0  0  0
   -9.2865    1.7501    6.7804 C   0  0  0  0  0  0  0  0  0  0  0  0
   -7.9428    1.1626    6.9876 C   0  0  0  0  0  0  0  0  0  0  0  0
   -7.6774   -0.1328    6.6887 C   0  0  0  0  0  0  0  0  0  0  0  0
   -8.8095   -0.8509    6.4013 C   0  0  0  0  0  0  0  0  0  0  0  0
   -5.8365    0.1714    8.9216 H   0  0  0  0  0  0  0  0  0  0  0  0
   -6.0012    0.8603    4.1894 H   0  0  0  0  0  0  0  0  0  0  0  0
   -6.5723    3.1143    3.4569 H   0  0  0  0  0  0  0  0  0  0  0  0
   -5.8798    5.0660    4.8267 H   0  0  0  0  0  0  0  0  0  0  0  0
   -4.6254    4.7347    6.9354 H   0  0  0  0  0  0  0  0  0  0  0  0
   -4.0289    2.4679    7.7076 H   0  0  0  0  0  0  0  0  0  0  0  0
   -4.2691   -0.5138    4.3492 H   0  0  0  0  0  0  0  0  0  0  0  0
   -3.6172   -1.5344    5.6431 H   0  0  0  0  0  0  0  0  0  0  0  0
   -5.5742   -2.7147    5.4698 H   0  0  0  0  0  0  0  0  0  0  0  0
   -6.4363   -1.4426    4.6277 H   0  0  0  0  0  0  0  0  0  0  0  0
   -7.0656   -3.4749    6.8622 H   0  0  0  0  0  0  0  0  0  0  0  0
   -7.5589   -2.5801    8.3207 H   0  0  0  0  0  0  0  0  0  0  0  0
  -11.3526    1.2659    6.3950 H   0  0  0  0  0  0  0  0  0  0  0  0
   -9.4107    2.8175    6.9322 H   0  0  0  0  0  0  0  0  0  0  0  0
   -7.2132    1.8300    7.4309 H   0  0  0  0  0  0  0  0  0  0  0  0
  1  2  2  0
  2  3  2  0
  3  4  1  0
  4  5  2  0
  5  6  1  0
  6  7  2  0
  7  8  1  0
  8  9  2  0
  3 10  1  0
 10 11  1  0
 11 12  1  0
 12 13  1  0
 13 14  1  0
 14 15  1  0
 15 16  2  0
 16 17  1  0
 17 18  1  0
 18 19  2  0
 19 20  1  0
 20 21  2  0
 21 22  1  0
 12  2  1  0
 22 14  2  0
  9  4  1  0
 21 12  1  0
 22 17  1  0
  2 23  1  0
  5 24  1  0
  6 25  1  0
  7 26  1  0
  8 27  1  0
  9 28  1  0
 10 29  1  0
 10 30  1  0
 11 31  1  0
 11 32  1  0
 13 33  1  0
 13 34  1  0
 18 35  1  0
 19 36  1  0
 20 37  1  0
M  END
>  <Energy>  (491) 
173.63156161305631

>  <compound_id>  (491) 
1806

>  <target_id>  (491) 
1

>  <reference_id>  (491) 
181

>  <inspiration_ids>  (491) 
[24, 181]

>  <energy_score>  (491) 
-16.723944893325495

>  <distance_score>  (491) 
2.832968708288288

>  <path>  (491) 
/opt/xchem-fragalysis-2/maxwin/BulkDock/SCRATCH/505732/C1806-P181/C1806-P181.minimised.mol

>  <scratch_subdir>  (491) 
/opt/xchem-fragalysis-2/maxwin/BulkDock/SCRATCH/505732/C1806-P181

>  <fragmenstein_runtime>  (491) 
5.0483973026275635

>  <fragmenstein_outcome>  (491) 
too moved

>  <fragmenstein_mode>  (491) 
expansion

>  <fragmenstein_error>  (491) 


$$$$
C1807-P24
     RDKit          3D

 37 40  0  0  0  0  0  0  0  0999 V2000
   -7.1402   -0.2117    7.9741 C   0  0  0  0  0  0  0  0  0  0  0  0
   -7.5611   -1.2236    7.1032 C   0  0  0  0  0  0  0  0  0  0  0  0
   -6.8503   -1.4812    5.9401 C   0  0  0  0  0  0  0  0  0  0  0  0
   -5.7181   -0.7097    5.6457 C   0  0  0  0  0  0  0  0  0  0  0  0
   -5.2260   -0.7005    4.2813 C   0  0  0  0  0  0  0  0  0  0  0  0
   -4.1240   -0.0269    3.9101 N   0  0  0  0  0  0  0  0  0  0  0  0
   -4.6043    0.6727    2.8610 N   0  0  0  0  0  0  0  0  0  0  0  0
   -5.9046    0.3334    2.6234 C   0  0  0  0  0  0  0  0  0  0  0  0
   -6.8940    1.2434    2.0019 C   0  0  0  0  0  0  0  0  0  0  0  0
   -7.5449    2.0075    3.0708 N   0  0  0  0  0  0  0  0  0  0  0  0
   -8.4974    3.0061    2.6052 C   0  0  0  0  0  0  0  0  0  0  0  0
   -9.9017    2.5134    2.3929 C   0  0  0  0  0  0  0  0  0  0  0  0
  -10.8878    2.6951    3.2998 C   0  0  0  0  0  0  0  0  0  0  0  0
  -12.2400    2.2489    3.0014 C   0  0  0  0  0  0  0  0  0  0  0  0
  -12.5442    1.6582    1.8310 C   0  0  0  0  0  0  0  0  0  0  0  0
  -11.5253    1.4697    0.8617 C   0  0  0  0  0  0  0  0  0  0  0  0
  -11.5249    0.9384   -0.3397 N   0  0  0  0  0  0  0  0  0  0  0  0
  -10.2433    1.0605   -0.8052 N   0  0  0  0  0  0  0  0  0  0  0  0
   -9.4657    1.6727    0.0755 N   0  0  0  0  0  0  0  0  0  0  0  0
  -10.2355    1.9166    1.1659 N   0  0  0  0  0  0  0  0  0  0  0  0
   -6.1794   -0.7554    3.3025 N   0  0  0  0  0  0  0  0  0  0  0  0
   -5.2822    0.2938    6.5307 C   0  0  0  0  0  0  0  0  0  0  0  0
   -6.0070    0.5528    7.6827 C   0  0  0  0  0  0  0  0  0  0  0  0
   -7.7106   -0.0080    8.8775 H   0  0  0  0  0  0  0  0  0  0  0  0
   -8.4543   -1.7988    7.3327 H   0  0  0  0  0  0  0  0  0  0  0  0
   -7.2152   -2.2225    5.2326 H   0  0  0  0  0  0  0  0  0  0  0  0
   -4.0740    1.4561    2.4985 H   0  0  0  0  0  0  0  0  0  0  0  0
   -6.3988    1.9115    1.2887 H   0  0  0  0  0  0  0  0  0  0  0  0
   -7.6174    0.6282    1.4615 H   0  0  0  0  0  0  0  0  0  0  0  0
   -7.9825    1.3550    3.7249 H   0  0  0  0  0  0  0  0  0  0  0  0
   -8.1263    3.5225    1.7105 H   0  0  0  0  0  0  0  0  0  0  0  0
   -8.5218    3.7886    3.3753 H   0  0  0  0  0  0  0  0  0  0  0  0
  -10.7079    3.1726    4.2592 H   0  0  0  0  0  0  0  0  0  0  0  0
  -13.0035    2.4018    3.7596 H   0  0  0  0  0  0  0  0  0  0  0  0
  -13.5493    1.3189    1.6068 H   0  0  0  0  0  0  0  0  0  0  0  0
   -4.4390    0.9304    6.2775 H   0  0  0  0  0  0  0  0  0  0  0  0
   -5.7091    1.3585    8.3431 H   0  0  0  0  0  0  0  0  0  0  0  0
  1  2  2  0
  2  3  1  0
  3  4  2  0
  4  5  1  0
  5  6  2  0
  6  7  1  0
  7  8  1  0
  8  9  1  0
  9 10  1  0
 10 11  1  0
 11 12  1  0
 12 13  2  0
 13 14  1  0
 14 15  2  0
 15 16  1  0
 16 17  2  0
 17 18  1  0
 18 19  2  0
 19 20  1  0
  8 21  2  0
  4 22  1  0
 22 23  2  0
 23  1  1  0
 21  5  1  0
 20 12  1  0
 20 16  1  0
  1 24  1  0
  2 25  1  0
  3 26  1  0
  7 27  1  0
  9 28  1  0
  9 29  1  0
 10 30  1  0
 11 31  1  0
 11 32  1  0
 13 33  1  0
 14 34  1  0
 15 35  1  0
 22 36  1  0
 23 37  1  0
M  END
>  <Energy>  (492) 
77.402549629752585

>  <compound_id>  (492) 
1807

>  <target_id>  (492) 
1

>  <reference_id>  (492) 
24

>  <inspiration_ids>  (492) 
[24, 182]

>  <energy_score>  (492) 
-6.970201803463311

>  <distance_score>  (492) 
1.606989739643957

>  <path>  (492) 
/opt/xchem-fragalysis-2/maxwin/BulkDock/SCRATCH/505732/C1807-P24/C1807-P24.minimised.mol

>  <scratch_subdir>  (492) 
/opt/xchem-fragalysis-2/maxwin/BulkDock/SCRATCH/505732/C1807-P24

>  <fragmenstein_runtime>  (492) 
1.5361824035644531

>  <fragmenstein_outcome>  (492) 
too moved

>  <fragmenstein_mode>  (492) 
expansion

>  <fragmenstein_error>  (492) 


$$$$
C1807-P182
     RDKit          3D

 37 40  0  0  0  0  0  0  0  0999 V2000
   -7.2731   -0.2971    7.6392 C   0  0  0  0  0  0  0  0  0  0  0  0
   -7.4909   -1.5063    6.9691 C   0  0  0  0  0  0  0  0  0  0  0  0
   -6.7299   -1.8431    5.8550 C   0  0  0  0  0  0  0  0  0  0  0  0
   -5.7470   -0.9550    5.4056 C   0  0  0  0  0  0  0  0  0  0  0  0
   -5.2416   -1.0621    4.0390 C   0  0  0  0  0  0  0  0  0  0  0  0
   -5.6456   -2.0106    3.1717 N   0  0  0  0  0  0  0  0  0  0  0  0
   -6.0672   -1.2344    2.1433 N   0  0  0  0  0  0  0  0  0  0  0  0
   -5.8409    0.0858    2.4316 C   0  0  0  0  0  0  0  0  0  0  0  0
   -6.6443    1.2238    1.9138 C   0  0  0  0  0  0  0  0  0  0  0  0
   -7.5271    1.7309    2.9747 N   0  0  0  0  0  0  0  0  0  0  0  0
   -8.3757    2.8424    2.5681 C   0  0  0  0  0  0  0  0  0  0  0  0
   -9.8245    2.4805    2.3748 C   0  0  0  0  0  0  0  0  0  0  0  0
  -10.7903    2.8076    3.2627 C   0  0  0  0  0  0  0  0  0  0  0  0
  -12.1789    2.4737    2.9824 C   0  0  0  0  0  0  0  0  0  0  0  0
  -12.5361    1.8439    1.8480 C   0  0  0  0  0  0  0  0  0  0  0  0
  -11.5375    1.4974    0.9015 C   0  0  0  0  0  0  0  0  0  0  0  0
  -11.5852    0.8894   -0.2618 N   0  0  0  0  0  0  0  0  0  0  0  0
  -10.2962    0.8515   -0.7202 N   0  0  0  0  0  0  0  0  0  0  0  0
   -9.4642    1.4320    0.1311 N   0  0  0  0  0  0  0  0  0  0  0  0
  -10.2112    1.8378    1.1871 N   0  0  0  0  0  0  0  0  0  0  0  0
   -4.9818    0.1311    3.4218 N   0  0  0  0  0  0  0  0  0  0  0  0
   -5.5020    0.2415    6.1114 C   0  0  0  0  0  0  0  0  0  0  0  0
   -6.2843    0.5844    7.2018 C   0  0  0  0  0  0  0  0  0  0  0  0
   -7.8882   -0.0357    8.4971 H   0  0  0  0  0  0  0  0  0  0  0  0
   -8.2627   -2.1866    7.3204 H   0  0  0  0  0  0  0  0  0  0  0  0
   -6.9415   -2.7615    5.3122 H   0  0  0  0  0  0  0  0  0  0  0  0
   -6.6241   -1.6468    1.4020 H   0  0  0  0  0  0  0  0  0  0  0  0
   -5.9606    2.0162    1.5886 H   0  0  0  0  0  0  0  0  0  0  0  0
   -7.2130    0.8909    1.0436 H   0  0  0  0  0  0  0  0  0  0  0  0
   -8.0549    0.9768    3.4071 H   0  0  0  0  0  0  0  0  0  0  0  0
   -7.9893    3.3479    1.6734 H   0  0  0  0  0  0  0  0  0  0  0  0
   -8.3055    3.5957    3.3633 H   0  0  0  0  0  0  0  0  0  0  0  0
  -10.5669    3.3267    4.1910 H   0  0  0  0  0  0  0  0  0  0  0  0
  -12.9265    2.7554    3.7194 H   0  0  0  0  0  0  0  0  0  0  0  0
  -13.5697    1.5968    1.6322 H   0  0  0  0  0  0  0  0  0  0  0  0
   -4.7790    0.9595    5.7381 H   0  0  0  0  0  0  0  0  0  0  0  0
   -6.1506    1.5477    7.6808 H   0  0  0  0  0  0  0  0  0  0  0  0
  1  2  2  0
  2  3  1  0
  3  4  2  0
  4  5  1  0
  5  6  2  0
  6  7  1  0
  7  8  1  0
  8  9  1  0
  9 10  1  0
 10 11  1  0
 11 12  1  0
 12 13  2  0
 13 14  1  0
 14 15  2  0
 15 16  1  0
 16 17  2  0
 17 18  1  0
 18 19  2  0
 19 20  1  0
  8 21  2  0
  4 22  1  0
 22 23  2  0
 23  1  1  0
 21  5  1  0
 20 12  1  0
 20 16  1  0
  1 24  1  0
  2 25  1  0
  3 26  1  0
  7 27  1  0
  9 28  1  0
  9 29  1  0
 10 30  1  0
 11 31  1  0
 11 32  1  0
 13 33  1  0
 14 34  1  0
 15 35  1  0
 22 36  1  0
 23 37  1  0
M  END
>  <Energy>  (493) 
84.702590656944452

>  <compound_id>  (493) 
1807

>  <target_id>  (493) 
1

>  <reference_id>  (493) 
182

>  <inspiration_ids>  (493) 
[24, 182]

>  <energy_score>  (493) 
0.3298392237286407

>  <distance_score>  (493) 
1.490462892333042

>  <path>  (493) 
/opt/xchem-fragalysis-2/maxwin/BulkDock/SCRATCH/505732/C1807-P182/C1807-P182.minimised.mol

>  <scratch_subdir>  (493) 
/opt/xchem-fragalysis-2/maxwin/BulkDock/SCRATCH/505732/C1807-P182

>  <fragmenstein_runtime>  (493) 
1.7606332302093506

>  <fragmenstein_outcome>  (493) 
too moved

>  <fragmenstein_mode>  (493) 
expansion

>  <fragmenstein_error>  (493) 


$$$$
C1812-P25
     RDKit          3D

 25 27  0  0  0  0  0  0  0  0999 V2000
   -0.4818   -8.3912   36.5307 C   0  0  0  0  0  0  0  0  0  0  0  0
    0.5469   -7.7692   35.6990 C   0  0  0  0  0  0  0  0  0  0  0  0
    1.6281   -8.4771   35.2694 N   0  0  0  0  0  0  0  0  0  0  0  0
    2.3902   -7.6903   34.5279 N   0  0  0  0  0  0  0  0  0  0  0  0
    1.8557   -6.4518   34.5511 N   0  0  0  0  0  0  0  0  0  0  0  0
    2.3125   -5.2894   33.9376 C   0  0  0  0  0  0  0  0  0  0  0  0
    1.4102   -4.3302   33.6733 C   0  0  0  0  0  0  0  0  0  0  0  0
   -0.0102   -4.7208   33.8644 C   0  0  0  0  0  0  0  0  0  0  0  0
   -0.6056   -5.4829   32.6892 C   0  0  0  0  0  0  0  0  0  0  0  0
   -0.1976   -5.1937   31.3999 C   0  0  0  0  0  0  0  0  0  0  0  0
   -0.2894   -6.1088   30.4180 N   0  0  0  0  0  0  0  0  0  0  0  0
   -0.8376   -7.3027   30.7499 C   0  0  0  0  0  0  0  0  0  0  0  0
   -1.3104   -7.5802   32.0038 C   0  0  0  0  0  0  0  0  0  0  0  0
   -1.2164   -6.6716   32.9826 N   0  0  0  0  0  0  0  0  0  0  0  0
   -0.2494   -5.3685   35.0419 C   0  0  0  0  0  0  0  0  0  0  0  0
    0.6261   -6.5007   35.1975 C   0  0  0  0  0  0  0  0  0  0  0  0
   -0.2403   -9.4337   36.7575 H   0  0  0  0  0  0  0  0  0  0  0  0
   -1.4547   -8.3558   36.0338 H   0  0  0  0  0  0  0  0  0  0  0  0
   -0.5401   -7.8446   37.4759 H   0  0  0  0  0  0  0  0  0  0  0  0
    3.3609   -5.2372   33.6813 H   0  0  0  0  0  0  0  0  0  0  0  0
    1.6540   -3.3820   33.2092 H   0  0  0  0  0  0  0  0  0  0  0  0
    0.2974   -4.2692   31.1272 H   0  0  0  0  0  0  0  0  0  0  0  0
   -0.8457   -8.0423   29.9615 H   0  0  0  0  0  0  0  0  0  0  0  0
   -1.7574   -8.5304   32.2652 H   0  0  0  0  0  0  0  0  0  0  0  0
   -1.2740   -5.6037   35.3211 H   0  0  0  0  0  0  0  0  0  0  0  0
  1  2  1  0
  2  3  1  0
  3  4  2  0
  4  5  1  0
  5  6  1  0
  6  7  2  0
  7  8  1  0
  8  9  1  0
  9 10  2  0
 10 11  1  0
 11 12  2  0
 12 13  1  0
 13 14  2  0
  8 15  2  0
 15 16  1  0
 16  2  2  0
 16  5  1  0
 14  9  1  0
  1 17  1  0
  1 18  1  0
  1 19  1  0
  6 20  1  0
  7 21  1  0
 10 22  1  0
 12 23  1  0
 13 24  1  0
 15 25  1  0
M  END
>  <Energy>  (494) 
159.30734098095289

>  <compound_id>  (494) 
1812

>  <target_id>  (494) 
1

>  <reference_id>  (494) 
25

>  <inspiration_ids>  (494) 
[25, 105]

>  <energy_score>  (494) 
43.134007734506724

>  <distance_score>  (494) 
2.970325439629676

>  <path>  (494) 
/opt/xchem-fragalysis-2/maxwin/BulkDock/SCRATCH/505732/C1812-P25/C1812-P25.minimised.mol

>  <scratch_subdir>  (494) 
/opt/xchem-fragalysis-2/maxwin/BulkDock/SCRATCH/505732/C1812-P25

>  <fragmenstein_runtime>  (494) 
1.1352925300598145

>  <fragmenstein_outcome>  (494) 
too moved

>  <fragmenstein_mode>  (494) 
expansion

>  <fragmenstein_error>  (494) 


$$$$
C1812-P105
     RDKit          3D

 25 27  0  0  0  0  0  0  0  0999 V2000
    1.0760   -6.0258   31.5752 C   0  0  0  0  0  0  0  0  0  0  0  0
   -0.3589   -5.5096   33.0709 C   0  0  0  0  0  0  0  0  0  0  0  0
   -0.9721   -6.3750   34.1157 N   0  0  0  0  0  0  0  0  0  0  0  0
   -1.0331   -5.7025   35.2668 N   0  0  0  0  0  0  0  0  0  0  0  0
   -0.5309   -4.4821   34.9729 N   0  0  0  0  0  0  0  0  0  0  0  0
    0.4952   -3.6906   35.5605 C   0  0  0  0  0  0  0  0  0  0  0  0
    1.1984   -2.8554   34.7336 C   0  0  0  0  0  0  0  0  0  0  0  0
    0.7993   -2.8563   33.2663 C   0  0  0  0  0  0  0  0  0  0  0  0
    1.1111   -4.1231   32.3981 C   0  0  0  0  0  0  0  0  0  0  0  0
   -0.2271   -4.5182   31.2116 C   0  0  0  0  0  0  0  0  0  0  0  0
   -0.9299   -6.1484   31.1542 N   0  0  0  0  0  0  0  0  0  0  0  0
   -0.2839   -7.4312   32.2018 C   0  0  0  0  0  0  0  0  0  0  0  0
    1.0451   -7.0676   33.3408 C   0  0  0  0  0  0  0  0  0  0  0  0
    1.7287   -5.4299   33.4338 N   0  0  0  0  0  0  0  0  0  0  0  0
   -0.5579   -2.8626   33.2289 C   0  0  0  0  0  0  0  0  0  0  0  0
   -0.8602   -4.2351   33.6150 C   0  0  0  0  0  0  0  0  0  0  0  0
    2.0933   -6.4389   31.8381 H   0  0  0  0  0  0  0  0  0  0  0  0
    1.5341   -5.2680   30.8623 H   0  0  0  0  0  0  0  0  0  0  0  0
    0.8420   -6.7595   30.7423 H   0  0  0  0  0  0  0  0  0  0  0  0
    0.7325   -3.8823   36.5960 H   0  0  0  0  0  0  0  0  0  0  0  0
    2.0384   -2.2531   35.0548 H   0  0  0  0  0  0  0  0  0  0  0  0
   -0.8051   -3.7811   30.6606 H   0  0  0  0  0  0  0  0  0  0  0  0
   -0.8299   -8.3647   32.1429 H   0  0  0  0  0  0  0  0  0  0  0  0
    1.4157   -7.7215   34.1184 H   0  0  0  0  0  0  0  0  0  0  0  0
   -1.1441   -2.1131   33.7636 H   0  0  0  0  0  0  0  0  0  0  0  0
  1  2  1  0
  2  3  1  0
  3  4  2  0
  4  5  1  0
  5  6  1  0
  6  7  2  0
  7  8  1  0
  8  9  1  0
  9 10  2  0
 10 11  1  0
 11 12  2  0
 12 13  1  0
 13 14  2  0
  8 15  2  0
 15 16  1  0
 16  2  2  0
 16  5  1  0
 14  9  1  0
  1 17  1  0
  1 18  1  0
  1 19  1  0
  6 20  1  0
  7 21  1  0
 10 22  1  0
 12 23  1  0
 13 24  1  0
 15 25  1  0
M  END
>  <Energy>  (495) 
1153.2996132995518

>  <compound_id>  (495) 
1812

>  <target_id>  (495) 
1

>  <reference_id>  (495) 
105

>  <inspiration_ids>  (495) 
[25, 105]

>  <energy_score>  (495) 
1039.8037031759939

>  <distance_score>  (495) 
3.193923930971768

>  <path>  (495) 
/opt/xchem-fragalysis-2/maxwin/BulkDock/SCRATCH/505732/C1812-P105/C1812-P105.minimised.mol

>  <scratch_subdir>  (495) 
/opt/xchem-fragalysis-2/maxwin/BulkDock/SCRATCH/505732/C1812-P105

>  <fragmenstein_runtime>  (495) 
1.6680777072906494

>  <fragmenstein_outcome>  (495) 
too moved

>  <fragmenstein_mode>  (495) 
expansion

>  <fragmenstein_error>  (495) 


$$$$
C1814-P25
     RDKit          3D

 36 39  0  0  0  0  0  0  0  0999 V2000
   -1.6052   -8.4561   32.4440 C   0  0  0  0  0  0  0  0  0  0  0  0
   -1.0885   -7.2358   32.3518 C   0  0  0  0  0  0  0  0  0  0  0  0
   -1.1595   -6.2851   33.5004 C   0  0  0  0  0  0  0  0  0  0  0  0
    0.1100   -5.6802   33.7427 N   0  0  0  0  0  0  0  0  0  0  0  0
    0.5846   -4.6478   32.9824 C   0  0  0  0  0  0  0  0  0  0  0  0
   -0.2247   -3.1123   32.9119 S   0  0  0  0  0  0  0  0  0  0  0  0
   -0.2287   -2.7051   31.2261 C   0  0  0  0  0  0  0  0  0  0  0  0
   -0.2704   -3.6278   30.2514 C   0  0  0  0  0  0  0  0  0  0  0  0
   -0.3652   -3.1949   28.8777 C   0  0  0  0  0  0  0  0  0  0  0  0
   -0.4747   -1.9017   28.5206 C   0  0  0  0  0  0  0  0  0  0  0  0
   -0.3572   -0.9155   29.5161 C   0  0  0  0  0  0  0  0  0  0  0  0
   -0.2328    0.3872   29.4563 N   0  0  0  0  0  0  0  0  0  0  0  0
   -0.0052    0.7948   30.7332 N   0  0  0  0  0  0  0  0  0  0  0  0
   -0.1306   -0.2041   31.5889 N   0  0  0  0  0  0  0  0  0  0  0  0
   -0.2514   -1.3384   30.8450 N   0  0  0  0  0  0  0  0  0  0  0  0
    1.8090   -4.9479   32.6368 N   0  0  0  0  0  0  0  0  0  0  0  0
    2.2019   -5.9965   33.4553 N   0  0  0  0  0  0  0  0  0  0  0  0
    1.1978   -6.3317   34.2441 C   0  0  0  0  0  0  0  0  0  0  0  0
    1.2326   -7.2125   35.4064 C   0  0  0  0  0  0  0  0  0  0  0  0
    2.3313   -8.0494   35.6249 C   0  0  0  0  0  0  0  0  0  0  0  0
    2.3822   -8.8645   36.7565 C   0  0  0  0  0  0  0  0  0  0  0  0
    1.3332   -8.8063   37.6562 C   0  0  0  0  0  0  0  0  0  0  0  0
    0.2794   -7.9788   37.5112 N   0  0  0  0  0  0  0  0  0  0  0  0
    0.2638   -7.1955   36.4070 C   0  0  0  0  0  0  0  0  0  0  0  0
   -1.5299   -9.1702   31.6389 H   0  0  0  0  0  0  0  0  0  0  0  0
   -2.0890   -8.7765   33.3601 H   0  0  0  0  0  0  0  0  0  0  0  0
   -0.5951   -6.9304   31.4334 H   0  0  0  0  0  0  0  0  0  0  0  0
   -1.5492   -6.7318   34.4154 H   0  0  0  0  0  0  0  0  0  0  0  0
   -1.7731   -5.4560   33.2176 H   0  0  0  0  0  0  0  0  0  0  0  0
   -0.2480   -4.6962   30.4216 H   0  0  0  0  0  0  0  0  0  0  0  0
   -0.3933   -3.9674   28.1205 H   0  0  0  0  0  0  0  0  0  0  0  0
   -0.5891   -1.5914   27.4888 H   0  0  0  0  0  0  0  0  0  0  0  0
    3.1665   -8.0579   34.9284 H   0  0  0  0  0  0  0  0  0  0  0  0
    3.2248   -9.5232   36.9367 H   0  0  0  0  0  0  0  0  0  0  0  0
    1.3190   -9.4273   38.5479 H   0  0  0  0  0  0  0  0  0  0  0  0
   -0.5779   -6.5099   36.3855 H   0  0  0  0  0  0  0  0  0  0  0  0
  1  2  2  0
  2  3  1  0
  3  4  1  0
  4  5  1  0
  5  6  1  0
  6  7  1  0
  7  8  2  0
  8  9  1  0
  9 10  2  0
 10 11  1  0
 11 12  2  0
 12 13  1  0
 13 14  2  0
 14 15  1  0
  5 16  2  0
 16 17  1  0
 17 18  2  0
 18 19  1  0
 19 20  2  0
 20 21  1  0
 21 22  2  0
 22 23  1  0
 23 24  2  0
 18  4  1  0
 24 19  1  0
 15  7  1  0
 15 11  1  0
  1 25  1  0
  1 26  1  0
  2 27  1  0
  3 28  1  0
  3 29  1  0
  8 30  1  0
  9 31  1  0
 10 32  1  0
 20 33  1  0
 21 34  1  0
 22 35  1  0
 24 36  1  0
M  END
>  <Energy>  (496) 
95.210300383166455

>  <compound_id>  (496) 
1814

>  <target_id>  (496) 
1

>  <reference_id>  (496) 
25

>  <inspiration_ids>  (496) 
[25, 131]

>  <energy_score>  (496) 
-10.209080745636527

>  <distance_score>  (496) 
2.668069729171786

>  <path>  (496) 
/opt/xchem-fragalysis-2/maxwin/BulkDock/SCRATCH/505732/C1814-P25/C1814-P25.minimised.mol

>  <scratch_subdir>  (496) 
/opt/xchem-fragalysis-2/maxwin/BulkDock/SCRATCH/505732/C1814-P25

>  <fragmenstein_runtime>  (496) 
4.334686517715454

>  <fragmenstein_outcome>  (496) 
too moved

>  <fragmenstein_mode>  (496) 
expansion

>  <fragmenstein_error>  (496) 


$$$$
C1814-P131
     RDKit          3D

 36 39  0  0  0  0  0  0  0  0999 V2000
   -1.2590   -8.8742   31.5440 C   0  0  0  0  0  0  0  0  0  0  0  0
   -0.8744   -7.6716   31.1337 C   0  0  0  0  0  0  0  0  0  0  0  0
   -1.0738   -6.4789   31.9921 C   0  0  0  0  0  0  0  0  0  0  0  0
    0.1837   -5.8652   32.2702 N   0  0  0  0  0  0  0  0  0  0  0  0
    0.9515   -5.1488   31.3916 C   0  0  0  0  0  0  0  0  0  0  0  0
    0.4593   -4.3722   29.9170 S   0  0  0  0  0  0  0  0  0  0  0  0
   -0.4286   -2.9535   30.4268 C   0  0  0  0  0  0  0  0  0  0  0  0
   -1.2575   -2.9553   31.4923 C   0  0  0  0  0  0  0  0  0  0  0  0
   -2.0885   -1.8100   31.7820 C   0  0  0  0  0  0  0  0  0  0  0  0
   -2.0465   -0.7014   31.0247 C   0  0  0  0  0  0  0  0  0  0  0  0
   -1.1196   -0.6158   29.9684 C   0  0  0  0  0  0  0  0  0  0  0  0
   -0.7645    0.3926   29.2131 N   0  0  0  0  0  0  0  0  0  0  0  0
    0.2307   -0.0798   28.4140 N   0  0  0  0  0  0  0  0  0  0  0  0
    0.4839   -1.3598   28.6586 N   0  0  0  0  0  0  0  0  0  0  0  0
   -0.3449   -1.7454   29.6671 N   0  0  0  0  0  0  0  0  0  0  0  0
    2.1979   -5.2837   31.7692 N   0  0  0  0  0  0  0  0  0  0  0  0
    2.2056   -5.8774   33.0105 N   0  0  0  0  0  0  0  0  0  0  0  0
    0.9582   -6.0830   33.3809 C   0  0  0  0  0  0  0  0  0  0  0  0
    0.5236   -6.3801   34.7377 C   0  0  0  0  0  0  0  0  0  0  0  0
    1.2297   -7.2757   35.5403 C   0  0  0  0  0  0  0  0  0  0  0  0
    0.8985   -7.4105   36.8868 C   0  0  0  0  0  0  0  0  0  0  0  0
   -0.1201   -6.6246   37.3947 C   0  0  0  0  0  0  0  0  0  0  0  0
   -0.8261   -5.7429   36.6563 N   0  0  0  0  0  0  0  0  0  0  0  0
   -0.4754   -5.6326   35.3551 C   0  0  0  0  0  0  0  0  0  0  0  0
   -1.0500   -9.7544   30.9446 H   0  0  0  0  0  0  0  0  0  0  0  0
   -1.7592   -9.0036   32.4977 H   0  0  0  0  0  0  0  0  0  0  0  0
   -0.3607   -7.5691   30.1818 H   0  0  0  0  0  0  0  0  0  0  0  0
   -1.5795   -6.7108   32.9323 H   0  0  0  0  0  0  0  0  0  0  0  0
   -1.6558   -5.7471   31.4602 H   0  0  0  0  0  0  0  0  0  0  0  0
   -1.3776   -3.7731   32.1822 H   0  0  0  0  0  0  0  0  0  0  0  0
   -2.7709   -1.8737   32.6266 H   0  0  0  0  0  0  0  0  0  0  0  0
   -2.6713    0.1531   31.2323 H   0  0  0  0  0  0  0  0  0  0  0  0
    2.0603   -7.8458   35.1371 H   0  0  0  0  0  0  0  0  0  0  0  0
    1.4261   -8.1065   37.5304 H   0  0  0  0  0  0  0  0  0  0  0  0
   -0.3995   -6.6838   38.4428 H   0  0  0  0  0  0  0  0  0  0  0  0
   -1.0112   -4.8532   34.8226 H   0  0  0  0  0  0  0  0  0  0  0  0
  1  2  2  0
  2  3  1  0
  3  4  1  0
  4  5  1  0
  5  6  1  0
  6  7  1  0
  7  8  2  0
  8  9  1  0
  9 10  2  0
 10 11  1  0
 11 12  2  0
 12 13  1  0
 13 14  2  0
 14 15  1  0
  5 16  2  0
 16 17  1  0
 17 18  2  0
 18 19  1  0
 19 20  2  0
 20 21  1  0
 21 22  2  0
 22 23  1  0
 23 24  2  0
 18  4  1  0
 24 19  1  0
 15  7  1  0
 15 11  1  0
  1 25  1  0
  1 26  1  0
  2 27  1  0
  3 28  1  0
  3 29  1  0
  8 30  1  0
  9 31  1  0
 10 32  1  0
 20 33  1  0
 21 34  1  0
 22 35  1  0
 24 36  1  0
M  END
>  <Energy>  (497) 
94.008904621783884

>  <compound_id>  (497) 
1814

>  <target_id>  (497) 
1

>  <reference_id>  (497) 
131

>  <inspiration_ids>  (497) 
[25, 131]

>  <energy_score>  (497) 
-11.410476507013243

>  <distance_score>  (497) 
2.6832277448070156

>  <path>  (497) 
/opt/xchem-fragalysis-2/maxwin/BulkDock/SCRATCH/505732/C1814-P131/C1814-P131.minimised.mol

>  <scratch_subdir>  (497) 
/opt/xchem-fragalysis-2/maxwin/BulkDock/SCRATCH/505732/C1814-P131

>  <fragmenstein_runtime>  (497) 
4.048199653625488

>  <fragmenstein_outcome>  (497) 
too moved

>  <fragmenstein_mode>  (497) 
expansion

>  <fragmenstein_error>  (497) 


$$$$
C1815-P25
     RDKit          3D

 34 36  0  0  0  0  0  0  0  0999 V2000
    1.7440   -3.5082   32.2775 C   0  0  0  0  0  0  0  0  0  0  0  0
    1.5943   -4.5104   33.1741 C   0  0  0  0  0  0  0  0  0  0  0  0
    2.4510   -4.6152   34.4409 C   0  0  0  0  0  0  0  0  0  0  0  0
    3.7174   -3.7871   34.5498 C   0  0  0  0  0  0  0  0  0  0  0  0
    4.9677   -4.4090   34.5255 C   0  0  0  0  0  0  0  0  0  0  0  0
    6.1063   -3.6263   34.6229 C   0  0  0  0  0  0  0  0  0  0  0  0
    6.0901   -2.2781   34.7264 N   0  0  0  0  0  0  0  0  0  0  0  0
    4.8750   -1.6954   34.7810 C   0  0  0  0  0  0  0  0  0  0  0  0
    3.6804   -2.3974   34.7143 C   0  0  0  0  0  0  0  0  0  0  0  0
    0.6076   -5.5831   33.0406 C   0  0  0  0  0  0  0  0  0  0  0  0
   -0.0129   -6.0106   31.9279 C   0  0  0  0  0  0  0  0  0  0  0  0
    0.1165   -5.4541   30.5628 C   0  0  0  0  0  0  0  0  0  0  0  0
   -0.1907   -3.9654   30.5662 C   0  0  0  0  0  0  0  0  0  0  0  0
    1.0184   -3.1479   31.0072 C   0  0  0  0  0  0  0  0  0  0  0  0
   -0.9382   -7.0128   32.2305 N   0  0  0  0  0  0  0  0  0  0  0  0
   -0.9388   -7.2269   33.6734 C   0  0  0  0  0  0  0  0  0  0  0  0
    0.1686   -6.3804   34.1090 N   0  0  0  0  0  0  0  0  0  0  0  0
    2.5321   -2.7801   32.4530 H   0  0  0  0  0  0  0  0  0  0  0  0
    1.8243   -4.3661   35.3088 H   0  0  0  0  0  0  0  0  0  0  0  0
    2.7397   -5.6674   34.5760 H   0  0  0  0  0  0  0  0  0  0  0  0
    5.0632   -5.4845   34.4227 H   0  0  0  0  0  0  0  0  0  0  0  0
    7.0960   -4.0735   34.6019 H   0  0  0  0  0  0  0  0  0  0  0  0
    4.8829   -0.6145   34.8873 H   0  0  0  0  0  0  0  0  0  0  0  0
    2.7363   -1.8647   34.7743 H   0  0  0  0  0  0  0  0  0  0  0  0
    1.1203   -5.6039   30.1598 H   0  0  0  0  0  0  0  0  0  0  0  0
   -0.5529   -5.9900   29.8970 H   0  0  0  0  0  0  0  0  0  0  0  0
   -1.0551   -3.7372   31.2029 H   0  0  0  0  0  0  0  0  0  0  0  0
   -0.4622   -3.6531   29.5502 H   0  0  0  0  0  0  0  0  0  0  0  0
    1.7609   -3.1721   30.1982 H   0  0  0  0  0  0  0  0  0  0  0  0
    0.7014   -2.1004   31.0906 H   0  0  0  0  0  0  0  0  0  0  0  0
   -0.7632   -7.8560   31.6955 H   0  0  0  0  0  0  0  0  0  0  0  0
   -1.8720   -6.8944   34.1234 H   0  0  0  0  0  0  0  0  0  0  0  0
   -0.7755   -8.2680   33.9354 H   0  0  0  0  0  0  0  0  0  0  0  0
   -0.1154   -5.7919   34.8904 H   0  0  0  0  0  0  0  0  0  0  0  0
  1  2  2  0
  2  3  1  0
  3  4  1  0
  4  5  2  0
  5  6  1  0
  6  7  2  0
  7  8  1  0
  8  9  2  0
  2 10  1  0
 10 11  2  0
 11 12  1  0
 12 13  1  0
 13 14  1  0
 11 15  1  0
 15 16  1  0
 16 17  1  0
 14  1  1  0
  9  4  1  0
 17 10  1  0
  1 18  1  0
  3 19  1  0
  3 20  1  0
  5 21  1  0
  6 22  1  0
  8 23  1  0
  9 24  1  0
 12 25  1  0
 12 26  1  0
 13 27  1  0
 13 28  1  0
 14 29  1  0
 14 30  1  0
 15 31  1  0
 16 32  1  0
 16 33  1  0
 17 34  1  0
M  END
>  <Energy>  (498) 
28.973077525131082

>  <compound_id>  (498) 
1815

>  <target_id>  (498) 
1

>  <reference_id>  (498) 
25

>  <inspiration_ids>  (498) 
[25, 132]

>  <energy_score>  (498) 
-26.712499100458842

>  <distance_score>  (498) 
1.7090468608248772

>  <path>  (498) 
/opt/xchem-fragalysis-2/maxwin/BulkDock/SCRATCH/505732/C1815-P25/C1815-P25.minimised.mol

>  <scratch_subdir>  (498) 
/opt/xchem-fragalysis-2/maxwin/BulkDock/SCRATCH/505732/C1815-P25

>  <fragmenstein_runtime>  (498) 
2.4686107635498047

>  <fragmenstein_outcome>  (498) 
too moved

>  <fragmenstein_mode>  (498) 
expansion

>  <fragmenstein_error>  (498) 


$$$$
C1815-P132
     RDKit          3D

 34 36  0  0  0  0  0  0  0  0999 V2000
    2.2930   -6.2072   34.9059 C   0  0  0  0  0  0  0  0  0  0  0  0
    1.9452   -5.6242   33.7393 C   0  0  0  0  0  0  0  0  0  0  0  0
    2.6448   -4.4043   33.1526 C   0  0  0  0  0  0  0  0  0  0  0  0
    3.7464   -3.6557   33.8878 C   0  0  0  0  0  0  0  0  0  0  0  0
    3.7538   -3.3977   35.2595 C   0  0  0  0  0  0  0  0  0  0  0  0
    4.8104   -2.6820   35.8062 C   0  0  0  0  0  0  0  0  0  0  0  0
    5.8081   -2.1280   35.0828 N   0  0  0  0  0  0  0  0  0  0  0  0
    5.7532   -2.3200   33.7548 C   0  0  0  0  0  0  0  0  0  0  0  0
    4.7672   -3.0669   33.1265 C   0  0  0  0  0  0  0  0  0  0  0  0
    0.8930   -6.2149   32.9048 C   0  0  0  0  0  0  0  0  0  0  0  0
   -0.2341   -6.8673   33.2549 C   0  0  0  0  0  0  0  0  0  0  0  0
   -0.8100   -7.1778   34.5870 C   0  0  0  0  0  0  0  0  0  0  0  0
    0.0537   -6.8882   35.8141 C   0  0  0  0  0  0  0  0  0  0  0  0
    1.5257   -7.2630   35.6457 C   0  0  0  0  0  0  0  0  0  0  0  0
   -0.8805   -7.3542   32.1198 N   0  0  0  0  0  0  0  0  0  0  0  0
   -0.1730   -6.9276   30.9410 C   0  0  0  0  0  0  0  0  0  0  0  0
    0.9833   -6.2454   31.5072 N   0  0  0  0  0  0  0  0  0  0  0  0
    3.1735   -5.8723   35.4436 H   0  0  0  0  0  0  0  0  0  0  0  0
    1.8745   -3.6535   32.9257 H   0  0  0  0  0  0  0  0  0  0  0  0
    3.0690   -4.7191   32.1888 H   0  0  0  0  0  0  0  0  0  0  0  0
    2.9506   -3.7260   35.9102 H   0  0  0  0  0  0  0  0  0  0  0  0
    4.8569   -2.4902   36.8749 H   0  0  0  0  0  0  0  0  0  0  0  0
    6.5513   -1.8543   33.1842 H   0  0  0  0  0  0  0  0  0  0  0  0
    4.7994   -3.1787   32.0470 H   0  0  0  0  0  0  0  0  0  0  0  0
   -1.7626   -6.6533   34.7037 H   0  0  0  0  0  0  0  0  0  0  0  0
   -1.0519   -8.2398   34.6069 H   0  0  0  0  0  0  0  0  0  0  0  0
   -0.3589   -7.4527   36.6591 H   0  0  0  0  0  0  0  0  0  0  0  0
   -0.0389   -5.8282   36.0858 H   0  0  0  0  0  0  0  0  0  0  0  0
    1.9646   -7.3482   36.6481 H   0  0  0  0  0  0  0  0  0  0  0  0
    1.6613   -8.2350   35.1681 H   0  0  0  0  0  0  0  0  0  0  0  0
   -1.8864   -7.2363   32.1341 H   0  0  0  0  0  0  0  0  0  0  0  0
   -0.7582   -6.2364   30.3372 H   0  0  0  0  0  0  0  0  0  0  0  0
    0.1357   -7.7828   30.3334 H   0  0  0  0  0  0  0  0  0  0  0  0
    1.1132   -5.3171   31.1212 H   0  0  0  0  0  0  0  0  0  0  0  0
  1  2  2  0
  2  3  1  0
  3  4  1  0
  4  5  2  0
  5  6  1  0
  6  7  2  0
  7  8  1  0
  8  9  2  0
  2 10  1  0
 10 11  2  0
 11 12  1  0
 12 13  1  0
 13 14  1  0
 11 15  1  0
 15 16  1  0
 16 17  1  0
 14  1  1  0
  9  4  1  0
 17 10  1  0
  1 18  1  0
  3 19  1  0
  3 20  1  0
  5 21  1  0
  6 22  1  0
  8 23  1  0
  9 24  1  0
 12 25  1  0
 12 26  1  0
 13 27  1  0
 13 28  1  0
 14 29  1  0
 14 30  1  0
 15 31  1  0
 16 32  1  0
 16 33  1  0
 17 34  1  0
M  END
>  <Energy>  (499) 
35.011427001417317

>  <compound_id>  (499) 
1815

>  <target_id>  (499) 
1

>  <reference_id>  (499) 
132

>  <inspiration_ids>  (499) 
[25, 132]

>  <energy_score>  (499) 
-20.674149624171008

>  <distance_score>  (499) 
2.542165451033067

>  <path>  (499) 
/opt/xchem-fragalysis-2/maxwin/BulkDock/SCRATCH/505732/C1815-P132/C1815-P132.minimised.mol

>  <scratch_subdir>  (499) 
/opt/xchem-fragalysis-2/maxwin/BulkDock/SCRATCH/505732/C1815-P132

>  <fragmenstein_runtime>  (499) 
2.3387176990509033

>  <fragmenstein_outcome>  (499) 
too moved

>  <fragmenstein_mode>  (499) 
expansion

>  <fragmenstein_error>  (499) 


$$$$
C1816-P25
     RDKit          3D

 35 38  0  0  0  0  0  0  0  0999 V2000
    3.3290   -0.6892   35.3353 O   0  0  0  0  0  0  0  0  0  0  0  0
    2.9268   -1.7439   34.8713 C   0  0  0  0  0  0  0  0  0  0  0  0
    3.1572   -2.9856   35.4496 N   0  0  0  0  0  0  0  0  0  0  0  0
    2.9886   -4.0301   34.7001 C   0  0  0  0  0  0  0  0  0  0  0  0
    3.2179   -5.6382   35.3516 S   0  0  0  0  0  0  0  0  0  0  0  0
    1.5577   -6.4535   35.2410 C   0  0  0  0  0  0  0  0  0  0  0  0
    0.8598   -6.3775   36.6122 C   0  0  0  0  0  0  0  0  0  0  0  0
   -0.6669   -6.4924   36.4983 C   0  0  0  0  0  0  0  0  0  0  0  0
   -1.1368   -7.4493   35.3885 C   0  0  0  0  0  0  0  0  0  0  0  0
   -0.3979   -7.3071   34.1348 N   0  0  0  0  0  0  0  0  0  0  0  0
   -1.2127   -7.1656   32.9589 N   0  0  0  0  0  0  0  0  0  0  0  0
   -0.4247   -6.3161   32.0753 C   0  0  0  0  0  0  0  0  0  0  0  0
    0.8949   -6.2081   32.7238 N   0  0  0  0  0  0  0  0  0  0  0  0
    0.5080   -6.1678   34.1315 C   0  0  0  0  0  0  0  0  0  0  0  0
    2.6457   -4.0673   33.3816 N   0  0  0  0  0  0  0  0  0  0  0  0
    2.0601   -2.9550   32.9310 C   0  0  0  0  0  0  0  0  0  0  0  0
    1.3043   -2.8103   31.7523 C   0  0  0  0  0  0  0  0  0  0  0  0
    0.8043   -1.5309   31.6620 C   0  0  0  0  0  0  0  0  0  0  0  0
    1.2987   -0.5457   32.9800 S   0  0  0  0  0  0  0  0  0  0  0  0
    2.1631   -1.8161   33.6630 C   0  0  0  0  0  0  0  0  0  0  0  0
    1.8620   -7.5033   35.1113 H   0  0  0  0  0  0  0  0  0  0  0  0
    1.2363   -7.1857   37.2524 H   0  0  0  0  0  0  0  0  0  0  0  0
    1.0838   -5.4360   37.1292 H   0  0  0  0  0  0  0  0  0  0  0  0
   -1.0858   -5.4955   36.3089 H   0  0  0  0  0  0  0  0  0  0  0  0
   -1.0593   -6.8062   37.4683 H   0  0  0  0  0  0  0  0  0  0  0  0
   -2.2093   -7.3305   35.2309 H   0  0  0  0  0  0  0  0  0  0  0  0
   -0.9885   -8.4728   35.7469 H   0  0  0  0  0  0  0  0  0  0  0  0
   -1.3992   -8.0730   32.5277 H   0  0  0  0  0  0  0  0  0  0  0  0
   -0.8795   -5.3232   31.9911 H   0  0  0  0  0  0  0  0  0  0  0  0
   -0.3515   -6.7376   31.0698 H   0  0  0  0  0  0  0  0  0  0  0  0
    1.2579   -7.1470   32.6166 H   0  0  0  0  0  0  0  0  0  0  0  0
    0.0119   -5.2051   34.3282 H   0  0  0  0  0  0  0  0  0  0  0  0
    2.4074   -4.9716   32.9778 H   0  0  0  0  0  0  0  0  0  0  0  0
    1.1088   -3.5801   31.0172 H   0  0  0  0  0  0  0  0  0  0  0  0
    0.1799   -1.1136   30.8825 H   0  0  0  0  0  0  0  0  0  0  0  0
  1  2  2  0
  2  3  1  0
  3  4  2  0
  4  5  1  0
  5  6  1  0
  6  7  1  0
  7  8  1  0
  8  9  1  0
  9 10  1  0
 10 11  1  0
 11 12  1  0
 12 13  1  0
 13 14  1  0
  4 15  1  0
 15 16  1  0
 16 17  1  0
 17 18  2  0
 18 19  1  0
 19 20  1  0
 20  2  1  0
 14  6  1  0
 20 16  2  0
 14 10  1  0
  6 21  1  0
  7 22  1  0
  7 23  1  0
  8 24  1  0
  8 25  1  0
  9 26  1  0
  9 27  1  0
 11 28  1  0
 12 29  1  0
 12 30  1  0
 13 31  1  0
 14 32  1  0
 15 33  1  0
 17 34  1  0
 18 35  1  0
M  END
>  <Energy>  (500) 
-31.598420150330526

>  <compound_id>  (500) 
1816

>  <target_id>  (500) 
1

>  <reference_id>  (500) 
25

>  <inspiration_ids>  (500) 
[25, 133]

>  <energy_score>  (500) 
-40.611639155243154

>  <distance_score>  (500) 
2.654126339447747

>  <path>  (500) 
/opt/xchem-fragalysis-2/maxwin/BulkDock/SCRATCH/505732/C1816-P25/C1816-P25.minimised.mol

>  <scratch_subdir>  (500) 
/opt/xchem-fragalysis-2/maxwin/BulkDock/SCRATCH/505732/C1816-P25

>  <fragmenstein_runtime>  (500) 
2.3538506031036377

>  <fragmenstein_outcome>  (500) 
too moved

>  <fragmenstein_mode>  (500) 
expansion

>  <fragmenstein_error>  (500) 


$$$$
C1816-P133
     RDKit          3D

 35 38  0  0  0  0  0  0  0  0999 V2000
    2.5373   -0.3569   35.1001 O   0  0  0  0  0  0  0  0  0  0  0  0
    2.6274   -1.5061   34.7011 C   0  0  0  0  0  0  0  0  0  0  0  0
    2.4807   -2.6351   35.4945 N   0  0  0  0  0  0  0  0  0  0  0  0
    2.9323   -3.7407   34.9886 C   0  0  0  0  0  0  0  0  0  0  0  0
    2.3007   -5.2934   35.5308 S   0  0  0  0  0  0  0  0  0  0  0  0
    0.5203   -4.9887   35.0469 C   0  0  0  0  0  0  0  0  0  0  0  0
   -0.3205   -5.1960   36.3060 C   0  0  0  0  0  0  0  0  0  0  0  0
   -0.5344   -6.6819   36.5587 C   0  0  0  0  0  0  0  0  0  0  0  0
   -1.1870   -7.3691   35.3507 C   0  0  0  0  0  0  0  0  0  0  0  0
   -0.3436   -7.2034   34.1662 N   0  0  0  0  0  0  0  0  0  0  0  0
   -0.9762   -7.6573   32.9435 N   0  0  0  0  0  0  0  0  0  0  0  0
   -0.2651   -6.9179   31.9037 C   0  0  0  0  0  0  0  0  0  0  0  0
    0.5893   -5.9360   32.6033 N   0  0  0  0  0  0  0  0  0  0  0  0
   -0.1159   -5.7971   33.8796 C   0  0  0  0  0  0  0  0  0  0  0  0
    3.6984   -3.9130   33.8652 N   0  0  0  0  0  0  0  0  0  0  0  0
    3.3006   -3.0433   32.9188 C   0  0  0  0  0  0  0  0  0  0  0  0
    3.2148   -3.2529   31.5289 C   0  0  0  0  0  0  0  0  0  0  0  0
    2.5642   -2.1994   30.9218 C   0  0  0  0  0  0  0  0  0  0  0  0
    2.1362   -0.9662   32.0369 S   0  0  0  0  0  0  0  0  0  0  0  0
    2.7617   -1.8559   33.3171 C   0  0  0  0  0  0  0  0  0  0  0  0
    0.4348   -3.9322   34.7700 H   0  0  0  0  0  0  0  0  0  0  0  0
    0.1261   -4.7144   37.1844 H   0  0  0  0  0  0  0  0  0  0  0  0
   -1.2994   -4.7181   36.1675 H   0  0  0  0  0  0  0  0  0  0  0  0
   -1.1531   -6.7711   37.4470 H   0  0  0  0  0  0  0  0  0  0  0  0
    0.4121   -7.1806   36.7998 H   0  0  0  0  0  0  0  0  0  0  0  0
   -2.1841   -6.9543   35.1817 H   0  0  0  0  0  0  0  0  0  0  0  0
   -1.3089   -8.4234   35.5941 H   0  0  0  0  0  0  0  0  0  0  0  0
   -0.8975   -8.6682   32.8259 H   0  0  0  0  0  0  0  0  0  0  0  0
   -0.9816   -6.3972   31.2636 H   0  0  0  0  0  0  0  0  0  0  0  0
    0.3400   -7.5732   31.2717 H   0  0  0  0  0  0  0  0  0  0  0  0
    1.4264   -6.4504   32.8615 H   0  0  0  0  0  0  0  0  0  0  0  0
   -1.0713   -5.2850   33.6729 H   0  0  0  0  0  0  0  0  0  0  0  0
    3.8407   -4.8861   33.6199 H   0  0  0  0  0  0  0  0  0  0  0  0
    3.5478   -4.1311   30.9925 H   0  0  0  0  0  0  0  0  0  0  0  0
    2.3233   -2.0813   29.8735 H   0  0  0  0  0  0  0  0  0  0  0  0
  1  2  2  0
  2  3  1  0
  3  4  2  0
  4  5  1  0
  5  6  1  0
  6  7  1  0
  7  8  1  0
  8  9  1  0
  9 10  1  0
 10 11  1  0
 11 12  1  0
 12 13  1  0
 13 14  1  0
  4 15  1  0
 15 16  1  0
 16 17  1  0
 17 18  2  0
 18 19  1  0
 19 20  1  0
 20  2  1  0
 14  6  1  0
 20 16  2  0
 14 10  1  0
  6 21  1  0
  7 22  1  0
  7 23  1  0
  8 24  1  0
  8 25  1  0
  9 26  1  0
  9 27  1  0
 11 28  1  0
 12 29  1  0
 12 30  1  0
 13 31  1  0
 14 32  1  0
 15 33  1  0
 17 34  1  0
 18 35  1  0
M  END
>  <Energy>  (501) 
-27.422015936595528

>  <compound_id>  (501) 
1816

>  <target_id>  (501) 
1

>  <reference_id>  (501) 
133

>  <inspiration_ids>  (501) 
[25, 133]

>  <energy_score>  (501) 
-36.43523494150675

>  <distance_score>  (501) 
2.530410694268688

>  <path>  (501) 
/opt/xchem-fragalysis-2/maxwin/BulkDock/SCRATCH/505732/C1816-P133/C1816-P133.minimised.mol

>  <scratch_subdir>  (501) 
/opt/xchem-fragalysis-2/maxwin/BulkDock/SCRATCH/505732/C1816-P133

>  <fragmenstein_runtime>  (501) 
2.499669313430786

>  <fragmenstein_outcome>  (501) 
too moved

>  <fragmenstein_mode>  (501) 
expansion

>  <fragmenstein_error>  (501) 


$$$$
C1817-P25
     RDKit          3D

 30 33  0  0  0  0  0  0  0  0999 V2000
    0.8306   -6.6196   36.4092 C   0  0  0  0  0  0  0  0  0  0  0  0
    1.8332   -6.4553   35.3288 C   0  0  0  0  0  0  0  0  0  0  0  0
    2.4035   -7.5921   34.8303 N   0  0  0  0  0  0  0  0  0  0  0  0
    3.5940   -7.2681   34.3624 N   0  0  0  0  0  0  0  0  0  0  0  0
    3.7258   -5.9180   34.4293 N   0  0  0  0  0  0  0  0  0  0  0  0
    4.8737   -5.1603   34.2138 C   0  0  0  0  0  0  0  0  0  0  0  0
    4.8127   -3.8233   34.2847 C   0  0  0  0  0  0  0  0  0  0  0  0
    3.5114   -3.1994   34.4469 C   0  0  0  0  0  0  0  0  0  0  0  0
    2.3793   -3.9151   34.6481 C   0  0  0  0  0  0  0  0  0  0  0  0
    0.8580   -3.0552   34.3994 S   0  0  0  0  0  0  0  0  0  0  0  0
   -0.0961   -4.3277   33.7424 C   0  0  0  0  0  0  0  0  0  0  0  0
   -0.6953   -5.0534   34.6122 N   0  0  0  0  0  0  0  0  0  0  0  0
   -1.2285   -6.2567   34.2263 C   0  0  0  0  0  0  0  0  0  0  0  0
   -1.8156   -7.0055   35.0018 O   0  0  0  0  0  0  0  0  0  0  0  0
   -0.9926   -6.5717   32.8499 C   0  0  0  0  0  0  0  0  0  0  0  0
   -1.4544   -8.0222   32.1272 S   0  0  0  0  0  0  0  0  0  0  0  0
   -0.8464   -7.4853   30.6295 C   0  0  0  0  0  0  0  0  0  0  0  0
   -0.3194   -6.2101   30.6849 C   0  0  0  0  0  0  0  0  0  0  0  0
   -0.4071   -5.7029   31.9755 C   0  0  0  0  0  0  0  0  0  0  0  0
    0.0060   -4.5062   32.3968 N   0  0  0  0  0  0  0  0  0  0  0  0
    2.4904   -5.3505   34.7882 C   0  0  0  0  0  0  0  0  0  0  0  0
    0.1545   -7.4519   36.2114 H   0  0  0  0  0  0  0  0  0  0  0  0
    0.2873   -5.7063   36.6532 H   0  0  0  0  0  0  0  0  0  0  0  0
    1.3690   -6.8897   37.3269 H   0  0  0  0  0  0  0  0  0  0  0  0
    5.7869   -5.7102   34.0270 H   0  0  0  0  0  0  0  0  0  0  0  0
    5.6877   -3.1968   34.1445 H   0  0  0  0  0  0  0  0  0  0  0  0
    3.4807   -2.1234   34.2837 H   0  0  0  0  0  0  0  0  0  0  0  0
   -0.8537   -8.1459   29.7785 H   0  0  0  0  0  0  0  0  0  0  0  0
    0.1059   -5.6819   29.8416 H   0  0  0  0  0  0  0  0  0  0  0  0
    0.5546   -3.8463   31.8584 H   0  0  0  0  0  0  0  0  0  0  0  0
  1  2  1  0
  2  3  1  0
  3  4  2  0
  4  5  1  0
  5  6  1  0
  6  7  2  0
  7  8  1  0
  8  9  2  0
  9 10  1  0
 10 11  1  0
 11 12  2  0
 12 13  1  0
 13 14  2  0
 13 15  1  0
 15 16  1  0
 16 17  1  0
 17 18  2  0
 18 19  1  0
 19 20  1  0
  9 21  1  0
 21  2  2  0
 21  5  1  0
 20 11  1  0
 19 15  2  0
  1 22  1  0
  1 23  1  0
  1 24  1  0
  6 25  1  0
  7 26  1  0
  8 27  1  0
 17 28  1  0
 18 29  1  0
 20 30  1  0
M  END
>  <Energy>  (502) 
-6.1405311033984162

>  <compound_id>  (502) 
1817

>  <target_id>  (502) 
1

>  <reference_id>  (502) 
25

>  <inspiration_ids>  (502) 
[25, 134]

>  <energy_score>  (502) 
-34.84822533932348

>  <distance_score>  (502) 
2.721028116578176

>  <path>  (502) 
/opt/xchem-fragalysis-2/maxwin/BulkDock/SCRATCH/505732/C1817-P25/C1817-P25.minimised.mol

>  <scratch_subdir>  (502) 
/opt/xchem-fragalysis-2/maxwin/BulkDock/SCRATCH/505732/C1817-P25

>  <fragmenstein_runtime>  (502) 
1.3209750652313232

>  <fragmenstein_outcome>  (502) 
too moved

>  <fragmenstein_mode>  (502) 
expansion

>  <fragmenstein_error>  (502) 


$$$$
C1817-P134
     RDKit          3D

 30 33  0  0  0  0  0  0  0  0999 V2000
    1.9610   -5.0550   33.1007 C   0  0  0  0  0  0  0  0  0  0  0  0
    1.7368   -4.7291   31.6651 C   0  0  0  0  0  0  0  0  0  0  0  0
    1.8347   -5.7389   30.7574 N   0  0  0  0  0  0  0  0  0  0  0  0
    1.9633   -5.2221   29.5468 N   0  0  0  0  0  0  0  0  0  0  0  0
    1.8593   -3.8798   29.6570 N   0  0  0  0  0  0  0  0  0  0  0  0
    2.1355   -2.9068   28.7023 C   0  0  0  0  0  0  0  0  0  0  0  0
    1.8820   -1.6192   28.9773 C   0  0  0  0  0  0  0  0  0  0  0  0
    1.1699   -1.3119   30.2063 C   0  0  0  0  0  0  0  0  0  0  0  0
    0.9046   -2.2532   31.1427 C   0  0  0  0  0  0  0  0  0  0  0  0
   -0.3652   -1.8930   32.2815 S   0  0  0  0  0  0  0  0  0  0  0  0
   -0.8213   -3.4429   32.9126 C   0  0  0  0  0  0  0  0  0  0  0  0
   -0.6557   -3.5975   34.1811 N   0  0  0  0  0  0  0  0  0  0  0  0
   -0.8634   -4.8531   34.7198 C   0  0  0  0  0  0  0  0  0  0  0  0
   -0.7927   -5.0688   35.9240 O   0  0  0  0  0  0  0  0  0  0  0  0
   -1.0558   -5.8876   33.7149 C   0  0  0  0  0  0  0  0  0  0  0  0
   -1.1693   -7.5356   34.0227 S   0  0  0  0  0  0  0  0  0  0  0  0
   -1.2242   -7.9133   32.3454 C   0  0  0  0  0  0  0  0  0  0  0  0
   -1.1378   -6.7889   31.5627 C   0  0  0  0  0  0  0  0  0  0  0  0
   -1.1601   -5.6341   32.3747 C   0  0  0  0  0  0  0  0  0  0  0  0
   -1.2206   -4.3580   31.9695 N   0  0  0  0  0  0  0  0  0  0  0  0
    1.4327   -3.5719   30.9559 C   0  0  0  0  0  0  0  0  0  0  0  0
    3.0414   -5.1727   33.2503 H   0  0  0  0  0  0  0  0  0  0  0  0
    1.5188   -6.0066   33.3896 H   0  0  0  0  0  0  0  0  0  0  0  0
    1.6702   -4.2477   33.7692 H   0  0  0  0  0  0  0  0  0  0  0  0
    2.5722   -3.2464   27.7744 H   0  0  0  0  0  0  0  0  0  0  0  0
    2.0797   -0.8238   28.2660 H   0  0  0  0  0  0  0  0  0  0  0  0
    0.7292   -0.3173   30.2597 H   0  0  0  0  0  0  0  0  0  0  0  0
   -1.3064   -8.9374   32.0190 H   0  0  0  0  0  0  0  0  0  0  0  0
   -1.1124   -6.8193   30.4823 H   0  0  0  0  0  0  0  0  0  0  0  0
   -1.1496   -4.0781   30.9975 H   0  0  0  0  0  0  0  0  0  0  0  0
  1  2  1  0
  2  3  1  0
  3  4  2  0
  4  5  1  0
  5  6  1  0
  6  7  2  0
  7  8  1  0
  8  9  2  0
  9 10  1  0
 10 11  1  0
 11 12  2  0
 12 13  1  0
 13 14  2  0
 13 15  1  0
 15 16  1  0
 16 17  1  0
 17 18  2  0
 18 19  1  0
 19 20  1  0
  9 21  1  0
 21  2  2  0
 21  5  1  0
 20 11  1  0
 19 15  2  0
  1 22  1  0
  1 23  1  0
  1 24  1  0
  6 25  1  0
  7 26  1  0
  8 27  1  0
 17 28  1  0
 18 29  1  0
 20 30  1  0
M  END
>  <Energy>  (503) 
-5.9133079368417736

>  <compound_id>  (503) 
1817

>  <target_id>  (503) 
1

>  <reference_id>  (503) 
134

>  <inspiration_ids>  (503) 
[25, 134]

>  <energy_score>  (503) 
-34.62100217276358

>  <distance_score>  (503) 
2.5345224319184436

>  <path>  (503) 
/opt/xchem-fragalysis-2/maxwin/BulkDock/SCRATCH/505732/C1817-P134/C1817-P134.minimised.mol

>  <scratch_subdir>  (503) 
/opt/xchem-fragalysis-2/maxwin/BulkDock/SCRATCH/505732/C1817-P134

>  <fragmenstein_runtime>  (503) 
1.5701401233673096

>  <fragmenstein_outcome>  (503) 
too moved

>  <fragmenstein_mode>  (503) 
expansion

>  <fragmenstein_error>  (503) 


$$$$
C1818-P25
     RDKit          3D

 47 50  0  0  0  0  0  0  0  0999 V2000
   -1.3321    1.0931   27.1713 C   0  0  0  0  0  0  0  0  0  0  0  0
   -0.4348    0.4014   28.1082 C   0  0  0  0  0  0  0  0  0  0  0  0
    0.0226   -0.8676   27.9130 N   0  0  0  0  0  0  0  0  0  0  0  0
    0.8968   -1.1018   28.8787 N   0  0  0  0  0  0  0  0  0  0  0  0
    0.8840    0.0063   29.6221 N   0  0  0  0  0  0  0  0  0  0  0  0
    1.4067   -0.0019   30.9673 C   0  0  0  0  0  0  0  0  0  0  0  0
    0.2726   -0.1636   31.9654 C   0  0  0  0  0  0  0  0  0  0  0  0
    0.7897   -0.0414   33.7066 S   0  0  0  0  0  0  0  0  0  0  0  0
    1.4119   -1.7077   34.1054 C   0  0  0  0  0  0  0  0  0  0  0  0
    3.0146   -2.0133   33.4183 Cl  0  0  0  0  0  0  0  0  0  0  0  0
    0.3807   -2.7562   33.6751 C   0  0  0  0  0  0  0  0  0  0  0  0
   -0.6035   -2.9275   34.2855 O   0  0  0  0  0  0  0  0  0  0  0  0
    0.8532   -3.3789   32.3287 N   0  0  0  0  0  0  0  0  0  0  0  0
    0.1630   -4.2738   31.4043 C   0  0  0  0  0  0  0  0  0  0  0  0
   -0.3838   -5.5439   32.1521 C   0  0  0  0  0  0  0  0  0  0  0  0
   -0.3346   -6.8106   31.7982 N   0  0  0  0  0  0  0  0  0  0  0  0
   -0.4994   -7.5665   32.9607 N   0  0  0  0  0  0  0  0  0  0  0  0
   -0.6600   -6.7259   33.9629 C   0  0  0  0  0  0  0  0  0  0  0  0
   -0.4779   -6.9044   35.3760 C   0  0  0  0  0  0  0  0  0  0  0  0
   -0.8021   -5.9984   36.3758 C   0  0  0  0  0  0  0  0  0  0  0  0
   -0.3379   -6.3947   37.6651 C   0  0  0  0  0  0  0  0  0  0  0  0
    0.3201   -7.6002   37.6190 C   0  0  0  0  0  0  0  0  0  0  0  0
    0.3742   -8.2317   36.0363 S   0  0  0  0  0  0  0  0  0  0  0  0
   -0.8738   -5.4937   33.4242 N   0  0  0  0  0  0  0  0  0  0  0  0
   -0.8571   -3.4895   30.5520 C   0  0  0  0  0  0  0  0  0  0  0  0
   -0.2608   -4.1367   29.3064 C   0  0  0  0  0  0  0  0  0  0  0  0
    0.9769   -4.5100   30.1136 C   0  0  0  0  0  0  0  0  0  0  0  0
    0.0814    0.9894   29.1960 N   0  0  0  0  0  0  0  0  0  0  0  0
   -0.7513    1.6484   26.4291 H   0  0  0  0  0  0  0  0  0  0  0  0
   -1.9805    1.8022   27.6931 H   0  0  0  0  0  0  0  0  0  0  0  0
   -1.9640    0.3764   26.6450 H   0  0  0  0  0  0  0  0  0  0  0  0
    1.9373    0.9467   31.1072 H   0  0  0  0  0  0  0  0  0  0  0  0
    2.1357   -0.8135   31.0264 H   0  0  0  0  0  0  0  0  0  0  0  0
   -0.3224   -1.0566   31.8231 H   0  0  0  0  0  0  0  0  0  0  0  0
   -0.4335    0.6576   31.8283 H   0  0  0  0  0  0  0  0  0  0  0  0
    1.5259   -1.7822   35.1912 H   0  0  0  0  0  0  0  0  0  0  0  0
    1.7282   -2.9437   32.0408 H   0  0  0  0  0  0  0  0  0  0  0  0
   -1.3271   -5.0661   36.2020 H   0  0  0  0  0  0  0  0  0  0  0  0
   -0.4838   -5.8264   38.5762 H   0  0  0  0  0  0  0  0  0  0  0  0
    0.7684   -8.1457   38.4387 H   0  0  0  0  0  0  0  0  0  0  0  0
   -1.0741   -4.6519   33.9509 H   0  0  0  0  0  0  0  0  0  0  0  0
   -1.9063   -3.6561   30.7824 H   0  0  0  0  0  0  0  0  0  0  0  0
   -0.7353   -2.4096   30.5132 H   0  0  0  0  0  0  0  0  0  0  0  0
   -0.8095   -5.0068   28.9781 H   0  0  0  0  0  0  0  0  0  0  0  0
   -0.0947   -3.4920   28.4451 H   0  0  0  0  0  0  0  0  0  0  0  0
    1.8172   -3.8225   29.9597 H   0  0  0  0  0  0  0  0  0  0  0  0
    1.3288   -5.5199   29.9230 H   0  0  0  0  0  0  0  0  0  0  0  0
  1  2  1  0
  2  3  1  0
  3  4  2  0
  4  5  1  0
  5  6  1  0
  6  7  1  0
  7  8  1  0
  8  9  1  0
  9 10  1  0
  9 11  1  0
 11 12  2  0
 11 13  1  0
 13 14  1  0
 14 15  1  0
 15 16  2  0
 16 17  1  0
 17 18  2  0
 18 19  1  0
 19 20  2  0
 20 21  1  0
 21 22  2  0
 22 23  1  0
 18 24  1  0
 14 25  1  0
 25 26  1  0
 26 27  1  0
  5 28  1  0
 28  2  2  0
 27 14  1  0
 24 15  1  0
 23 19  1  0
  1 29  1  0
  1 30  1  0
  1 31  1  0
  6 32  1  0
  6 33  1  0
  7 34  1  0
  7 35  1  0
  9 36  1  0
 13 37  1  0
 20 38  1  0
 21 39  1  0
 22 40  1  0
 24 41  1  0
 25 42  1  0
 25 43  1  0
 26 44  1  0
 26 45  1  0
 27 46  1  0
 27 47  1  0
M  END
>  <Energy>  (504) 
79.602305061039004

>  <compound_id>  (504) 
1818

>  <target_id>  (504) 
1

>  <reference_id>  (504) 
25

>  <inspiration_ids>  (504) 
[25, 135]

>  <energy_score>  (504) 
-24.86834072816788

>  <distance_score>  (504) 
1.8871925616777585

>  <path>  (504) 
/opt/xchem-fragalysis-2/maxwin/BulkDock/SCRATCH/505732/C1818-P25/C1818-P25.minimised.mol

>  <scratch_subdir>  (504) 
/opt/xchem-fragalysis-2/maxwin/BulkDock/SCRATCH/505732/C1818-P25

>  <fragmenstein_runtime>  (504) 
6.201099872589111

>  <fragmenstein_outcome>  (504) 
too moved

>  <fragmenstein_mode>  (504) 
expansion

>  <fragmenstein_error>  (504) 


$$$$
C1818-P135
     RDKit          3D

 47 50  0  0  0  0  0  0  0  0999 V2000
   -1.7736    1.1456   27.2115 C   0  0  0  0  0  0  0  0  0  0  0  0
   -0.7818    0.6027   28.1475 C   0  0  0  0  0  0  0  0  0  0  0  0
   -0.0924   -0.5542   27.9313 N   0  0  0  0  0  0  0  0  0  0  0  0
    0.8256   -0.6242   28.8818 N   0  0  0  0  0  0  0  0  0  0  0  0
    0.6251    0.4741   29.6255 N   0  0  0  0  0  0  0  0  0  0  0  0
    1.1654    0.5781   30.9598 C   0  0  0  0  0  0  0  0  0  0  0  0
    0.6075   -0.5534   31.7962 C   0  0  0  0  0  0  0  0  0  0  0  0
    0.9744   -0.3271   33.5619 S   0  0  0  0  0  0  0  0  0  0  0  0
    1.2903   -2.0453   34.1051 C   0  0  0  0  0  0  0  0  0  0  0  0
    2.9061   -2.5752   33.5899 Cl  0  0  0  0  0  0  0  0  0  0  0  0
    0.1762   -2.9503   33.5596 C   0  0  0  0  0  0  0  0  0  0  0  0
   -0.8813   -2.9788   34.0587 O   0  0  0  0  0  0  0  0  0  0  0  0
    0.7012   -3.6463   32.2703 N   0  0  0  0  0  0  0  0  0  0  0  0
    0.0017   -4.4449   31.2778 C   0  0  0  0  0  0  0  0  0  0  0  0
   -0.5353   -5.7438   31.9523 C   0  0  0  0  0  0  0  0  0  0  0  0
   -0.2307   -6.9894   31.6524 N   0  0  0  0  0  0  0  0  0  0  0  0
   -0.2305   -7.6892   32.8512 N   0  0  0  0  0  0  0  0  0  0  0  0
   -0.5506   -6.8370   33.8051 C   0  0  0  0  0  0  0  0  0  0  0  0
   -0.1647   -6.8491   35.1838 C   0  0  0  0  0  0  0  0  0  0  0  0
    0.8849   -7.5456   35.7455 C   0  0  0  0  0  0  0  0  0  0  0  0
    1.0413   -7.3004   37.1409 C   0  0  0  0  0  0  0  0  0  0  0  0
    0.1530   -6.3534   37.5922 C   0  0  0  0  0  0  0  0  0  0  0  0
   -0.8367   -5.7656   36.3327 S   0  0  0  0  0  0  0  0  0  0  0  0
   -1.0853   -5.7341   33.2060 N   0  0  0  0  0  0  0  0  0  0  0  0
    0.7799   -4.6179   29.9616 C   0  0  0  0  0  0  0  0  0  0  0  0
   -0.3941   -3.9785   29.2091 C   0  0  0  0  0  0  0  0  0  0  0  0
   -1.0106   -3.5520   30.5364 C   0  0  0  0  0  0  0  0  0  0  0  0
   -0.3842    1.2654   29.2394 N   0  0  0  0  0  0  0  0  0  0  0  0
   -2.5460    1.7167   27.7325 H   0  0  0  0  0  0  0  0  0  0  0  0
   -2.2498    0.3387   26.6559 H   0  0  0  0  0  0  0  0  0  0  0  0
   -1.2906    1.8183   26.4967 H   0  0  0  0  0  0  0  0  0  0  0  0
    0.8885    1.5622   31.3553 H   0  0  0  0  0  0  0  0  0  0  0  0
    2.2567    0.5309   30.8770 H   0  0  0  0  0  0  0  0  0  0  0  0
    1.0648   -1.4670   31.4241 H   0  0  0  0  0  0  0  0  0  0  0  0
   -0.4801   -0.6171   31.6974 H   0  0  0  0  0  0  0  0  0  0  0  0
    1.2721   -2.0906   35.1979 H   0  0  0  0  0  0  0  0  0  0  0  0
    1.7008   -3.4711   32.1714 H   0  0  0  0  0  0  0  0  0  0  0  0
    1.5213   -8.2060   35.1772 H   0  0  0  0  0  0  0  0  0  0  0  0
    1.7731   -7.7854   37.7769 H   0  0  0  0  0  0  0  0  0  0  0  0
    0.0486   -5.9679   38.5978 H   0  0  0  0  0  0  0  0  0  0  0  0
   -1.3911   -4.9095   33.7128 H   0  0  0  0  0  0  0  0  0  0  0  0
    1.7041   -4.0311   29.8933 H   0  0  0  0  0  0  0  0  0  0  0  0
    1.0144   -5.6440   29.6645 H   0  0  0  0  0  0  0  0  0  0  0  0
   -0.1202   -3.1691   28.5326 H   0  0  0  0  0  0  0  0  0  0  0  0
   -1.0209   -4.6768   28.6675 H   0  0  0  0  0  0  0  0  0  0  0  0
   -2.0598   -3.7713   30.7116 H   0  0  0  0  0  0  0  0  0  0  0  0
   -0.9110   -2.4768   30.6957 H   0  0  0  0  0  0  0  0  0  0  0  0
  1  2  1  0
  2  3  1  0
  3  4  2  0
  4  5  1  0
  5  6  1  0
  6  7  1  0
  7  8  1  0
  8  9  1  0
  9 10  1  0
  9 11  1  0
 11 12  2  0
 11 13  1  0
 13 14  1  0
 14 15  1  0
 15 16  2  0
 16 17  1  0
 17 18  2  0
 18 19  1  0
 19 20  2  0
 20 21  1  0
 21 22  2  0
 22 23  1  0
 18 24  1  0
 14 25  1  0
 25 26  1  0
 26 27  1  0
  5 28  1  0
 28  2  2  0
 27 14  1  0
 24 15  1  0
 23 19  1  0
  1 29  1  0
  1 30  1  0
  1 31  1  0
  6 32  1  0
  6 33  1  0
  7 34  1  0
  7 35  1  0
  9 36  1  0
 13 37  1  0
 20 38  1  0
 21 39  1  0
 22 40  1  0
 24 41  1  0
 25 42  1  0
 25 43  1  0
 26 44  1  0
 26 45  1  0
 27 46  1  0
 27 47  1  0
M  END
>  <Energy>  (505) 
81.480603609111526

>  <compound_id>  (505) 
1818

>  <target_id>  (505) 
1

>  <reference_id>  (505) 
135

>  <inspiration_ids>  (505) 
[25, 135]

>  <energy_score>  (505) 
-22.990042180093837

>  <distance_score>  (505) 
1.7732557867643055

>  <path>  (505) 
/opt/xchem-fragalysis-2/maxwin/BulkDock/SCRATCH/505732/C1818-P135/C1818-P135.minimised.mol

>  <scratch_subdir>  (505) 
/opt/xchem-fragalysis-2/maxwin/BulkDock/SCRATCH/505732/C1818-P135

>  <fragmenstein_runtime>  (505) 
4.554702281951904

>  <fragmenstein_outcome>  (505) 
too moved

>  <fragmenstein_mode>  (505) 
expansion

>  <fragmenstein_error>  (505) 


$$$$
C1819-P25
     RDKit          3D

 39 41  0  0  0  0  0  0  0  0999 V2000
    2.2900    3.1566   35.1540 C   0  0  0  0  0  0  0  0  0  0  0  0
    3.0458    2.0545   34.5381 C   0  0  0  0  0  0  0  0  0  0  0  0
    4.4134    2.0053   34.5226 N   0  0  0  0  0  0  0  0  0  0  0  0
    4.7412    0.8764   33.9075 N   0  0  0  0  0  0  0  0  0  0  0  0
    3.5678    0.3079   33.5820 N   0  0  0  0  0  0  0  0  0  0  0  0
    3.4695   -1.1118   33.2998 C   0  0  0  0  0  0  0  0  0  0  0  0
    3.3502   -1.8508   34.6174 C   0  0  0  0  0  0  0  0  0  0  0  0
    2.8876   -3.2199   34.5262 N   0  0  0  0  0  0  0  0  0  0  0  0
    1.6512   -3.5937   34.4531 C   0  0  0  0  0  0  0  0  0  0  0  0
    0.3878   -2.7845   34.0728 C   0  0  0  0  0  0  0  0  0  0  0  0
    0.1973   -1.1149   34.6430 S   0  0  0  0  0  0  0  0  0  0  0  0
    0.2969   -2.8629   32.2915 Cl  0  0  0  0  0  0  0  0  0  0  0  0
    1.4217   -4.9337   34.6528 N   0  0  0  0  0  0  0  0  0  0  0  0
    1.1577   -5.4933   35.9806 C   0  0  0  0  0  0  0  0  0  0  0  0
   -0.1982   -6.2147   36.0316 C   0  0  0  0  0  0  0  0  0  0  0  0
   -0.5077   -6.8753   34.7291 C   0  0  0  0  0  0  0  0  0  0  0  0
   -1.8050   -7.9220   34.5689 S   0  0  0  0  0  0  0  0  0  0  0  0
   -1.6058   -7.9876   32.8703 C   0  0  0  0  0  0  0  0  0  0  0  0
   -0.5547   -7.2178   32.4406 C   0  0  0  0  0  0  0  0  0  0  0  0
    0.1623   -6.6722   33.5371 C   0  0  0  0  0  0  0  0  0  0  0  0
    1.4291   -5.8729   33.5470 C   0  0  0  0  0  0  0  0  0  0  0  0
    2.4711    1.0187   33.9175 N   0  0  0  0  0  0  0  0  0  0  0  0
    1.3858    3.3841   34.5804 H   0  0  0  0  0  0  0  0  0  0  0  0
    1.9941    2.8905   36.1733 H   0  0  0  0  0  0  0  0  0  0  0  0
    2.8974    4.0658   35.2001 H   0  0  0  0  0  0  0  0  0  0  0  0
    4.3706   -1.4125   32.7543 H   0  0  0  0  0  0  0  0  0  0  0  0
    2.6205   -1.2545   32.6308 H   0  0  0  0  0  0  0  0  0  0  0  0
    2.7777   -1.3057   35.3742 H   0  0  0  0  0  0  0  0  0  0  0  0
    4.3546   -1.8916   35.0619 H   0  0  0  0  0  0  0  0  0  0  0  0
   -0.4807   -3.3400   34.4414 H   0  0  0  0  0  0  0  0  0  0  0  0
    0.8054   -0.5004   33.6187 H   0  0  0  0  0  0  0  0  0  0  0  0
    1.1917   -4.7153   36.7527 H   0  0  0  0  0  0  0  0  0  0  0  0
    1.9580   -6.2054   36.2188 H   0  0  0  0  0  0  0  0  0  0  0  0
   -0.9815   -5.4734   36.2369 H   0  0  0  0  0  0  0  0  0  0  0  0
   -0.2030   -6.9319   36.8602 H   0  0  0  0  0  0  0  0  0  0  0  0
   -2.2916   -8.5556   32.2636 H   0  0  0  0  0  0  0  0  0  0  0  0
   -0.3020   -7.0969   31.3964 H   0  0  0  0  0  0  0  0  0  0  0  0
    1.5786   -5.3775   32.5829 H   0  0  0  0  0  0  0  0  0  0  0  0
    2.2694   -6.5584   33.6938 H   0  0  0  0  0  0  0  0  0  0  0  0
  1  2  1  0
  2  3  1  0
  3  4  2  0
  4  5  1  0
  5  6  1  0
  6  7  1  0
  7  8  1  0
  8  9  2  3
  9 10  1  0
 10 11  1  0
 10 12  1  0
  9 13  1  0
 13 14  1  0
 14 15  1  0
 15 16  1  0
 16 17  1  0
 17 18  1  0
 18 19  2  0
 19 20  1  0
 20 21  1  0
  5 22  1  0
 22  2  2  0
 21 13  1  0
 20 16  2  0
  1 23  1  0
  1 24  1  0
  1 25  1  0
  6 26  1  0
  6 27  1  0
  7 28  1  0
  7 29  1  0
 10 30  1  0
 11 31  1  0
 14 32  1  0
 14 33  1  0
 15 34  1  0
 15 35  1  0
 18 36  1  0
 19 37  1  0
 21 38  1  0
 21 39  1  0
M  END
>  <Energy>  (506) 
102.2231941413695

>  <compound_id>  (506) 
1819

>  <target_id>  (506) 
1

>  <reference_id>  (506) 
25

>  <inspiration_ids>  (506) 
[25, 136]

>  <energy_score>  (506) 
-30.591142506014364

>  <distance_score>  (506) 
2.348480840517493

>  <path>  (506) 
/opt/xchem-fragalysis-2/maxwin/BulkDock/SCRATCH/505732/C1819-P25/C1819-P25.minimised.mol

>  <scratch_subdir>  (506) 
/opt/xchem-fragalysis-2/maxwin/BulkDock/SCRATCH/505732/C1819-P25

>  <fragmenstein_runtime>  (506) 
5.611397981643677

>  <fragmenstein_outcome>  (506) 
too moved

>  <fragmenstein_mode>  (506) 
expansion

>  <fragmenstein_error>  (506) 


$$$$
C1819-P136
     RDKit          3D

 39 41  0  0  0  0  0  0  0  0999 V2000
    1.4814    2.6956   35.5731 C   0  0  0  0  0  0  0  0  0  0  0  0
    2.4679    1.7850   34.9709 C   0  0  0  0  0  0  0  0  0  0  0  0
    3.5859    2.2290   34.3178 N   0  0  0  0  0  0  0  0  0  0  0  0
    4.2307    1.1475   33.8987 N   0  0  0  0  0  0  0  0  0  0  0  0
    3.4806    0.1153   34.3200 N   0  0  0  0  0  0  0  0  0  0  0  0
    3.8860   -1.2546   34.0948 C   0  0  0  0  0  0  0  0  0  0  0  0
    3.2483   -2.2382   35.0673 C   0  0  0  0  0  0  0  0  0  0  0  0
    2.8632   -3.5130   34.4589 N   0  0  0  0  0  0  0  0  0  0  0  0
    1.6509   -3.6649   34.0035 C   0  0  0  0  0  0  0  0  0  0  0  0
    0.6527   -2.4991   33.7266 C   0  0  0  0  0  0  0  0  0  0  0  0
    1.1298   -1.6072   32.2022 S   0  0  0  0  0  0  0  0  0  0  0  0
   -0.9660   -3.1392   33.4206 Cl  0  0  0  0  0  0  0  0  0  0  0  0
    1.2997   -4.9590   33.6606 N   0  0  0  0  0  0  0  0  0  0  0  0
    0.6885   -5.8800   34.6402 C   0  0  0  0  0  0  0  0  0  0  0  0
   -0.5834   -6.5975   34.1342 C   0  0  0  0  0  0  0  0  0  0  0  0
   -0.4286   -6.9851   32.6990 C   0  0  0  0  0  0  0  0  0  0  0  0
   -1.4001   -8.1354   31.9219 S   0  0  0  0  0  0  0  0  0  0  0  0
   -0.5009   -7.9968   30.4790 C   0  0  0  0  0  0  0  0  0  0  0  0
    0.4044   -6.9723   30.5459 C   0  0  0  0  0  0  0  0  0  0  0  0
    0.5097   -6.4436   31.8505 C   0  0  0  0  0  0  0  0  0  0  0  0
    1.5252   -5.4509   32.3151 C   0  0  0  0  0  0  0  0  0  0  0  0
    2.3568    0.4527   34.9885 N   0  0  0  0  0  0  0  0  0  0  0  0
    0.7860    3.0590   34.8105 H   0  0  0  0  0  0  0  0  0  0  0  0
    0.9026    2.1941   36.3555 H   0  0  0  0  0  0  0  0  0  0  0  0
    1.9800    3.5593   36.0237 H   0  0  0  0  0  0  0  0  0  0  0  0
    4.9751   -1.2806   34.2301 H   0  0  0  0  0  0  0  0  0  0  0  0
    3.7051   -1.4906   33.0457 H   0  0  0  0  0  0  0  0  0  0  0  0
    2.4182   -1.8343   35.6541 H   0  0  0  0  0  0  0  0  0  0  0  0
    3.9994   -2.4771   35.8323 H   0  0  0  0  0  0  0  0  0  0  0  0
    0.5957   -1.8156   34.5736 H   0  0  0  0  0  0  0  0  0  0  0  0
    0.4587   -2.4163   31.3710 H   0  0  0  0  0  0  0  0  0  0  0  0
    0.4545   -5.3509   35.5722 H   0  0  0  0  0  0  0  0  0  0  0  0
    1.4433   -6.6358   34.8938 H   0  0  0  0  0  0  0  0  0  0  0  0
   -1.4421   -5.9278   34.2288 H   0  0  0  0  0  0  0  0  0  0  0  0
   -0.7817   -7.4723   34.7638 H   0  0  0  0  0  0  0  0  0  0  0  0
   -0.6535   -8.6595   29.6414 H   0  0  0  0  0  0  0  0  0  0  0  0
    1.0464   -6.6872   29.7235 H   0  0  0  0  0  0  0  0  0  0  0  0
    2.5150   -5.9194   32.2837 H   0  0  0  0  0  0  0  0  0  0  0  0
    1.5497   -4.6204   31.6000 H   0  0  0  0  0  0  0  0  0  0  0  0
  1  2  1  0
  2  3  1  0
  3  4  2  0
  4  5  1  0
  5  6  1  0
  6  7  1  0
  7  8  1  0
  8  9  2  3
  9 10  1  0
 10 11  1  0
 10 12  1  0
  9 13  1  0
 13 14  1  0
 14 15  1  0
 15 16  1  0
 16 17  1  0
 17 18  1  0
 18 19  2  0
 19 20  1  0
 20 21  1  0
  5 22  1  0
 22  2  2  0
 21 13  1  0
 20 16  2  0
  1 23  1  0
  1 24  1  0
  1 25  1  0
  6 26  1  0
  6 27  1  0
  7 28  1  0
  7 29  1  0
 10 30  1  0
 11 31  1  0
 14 32  1  0
 14 33  1  0
 15 34  1  0
 15 35  1  0
 18 36  1  0
 19 37  1  0
 21 38  1  0
 21 39  1  0
M  END
>  <Energy>  (507) 
95.573710208313003

>  <compound_id>  (507) 
1819

>  <target_id>  (507) 
1

>  <reference_id>  (507) 
136

>  <inspiration_ids>  (507) 
[25, 136]

>  <energy_score>  (507) 
-37.240626439068876

>  <distance_score>  (507) 
2.075914283301707

>  <path>  (507) 
/opt/xchem-fragalysis-2/maxwin/BulkDock/SCRATCH/505732/C1819-P136/C1819-P136.minimised.mol

>  <scratch_subdir>  (507) 
/opt/xchem-fragalysis-2/maxwin/BulkDock/SCRATCH/505732/C1819-P136

>  <fragmenstein_runtime>  (507) 
6.296718597412109

>  <fragmenstein_outcome>  (507) 
too moved

>  <fragmenstein_mode>  (507) 
expansion

>  <fragmenstein_error>  (507) 


$$$$
C1820-P25
     RDKit          3D

 27 30  0  0  0  0  0  0  0  0999 V2000
    7.3426   -7.3728   38.0381 F   0  0  0  0  0  0  0  0  0  0  0  0
    6.3016   -7.3347   37.1955 C   0  0  0  0  0  0  0  0  0  0  0  0
    5.8088   -8.5296   36.6775 C   0  0  0  0  0  0  0  0  0  0  0  0
    4.7220   -8.5252   35.7931 C   0  0  0  0  0  0  0  0  0  0  0  0
    4.1431   -7.2947   35.4429 C   0  0  0  0  0  0  0  0  0  0  0  0
    3.0828   -7.0258   34.6081 N   0  0  0  0  0  0  0  0  0  0  0  0
    2.9677   -5.7160   34.6342 C   0  0  0  0  0  0  0  0  0  0  0  0
    1.7823   -4.7416   33.8268 S   0  0  0  0  0  0  0  0  0  0  0  0
    0.4489   -5.7997   34.1209 C   0  0  0  0  0  0  0  0  0  0  0  0
    0.0839   -6.0827   35.3837 C   0  0  0  0  0  0  0  0  0  0  0  0
   -0.9137   -7.0922   35.6344 C   0  0  0  0  0  0  0  0  0  0  0  0
   -1.5182   -7.7408   34.6279 C   0  0  0  0  0  0  0  0  0  0  0  0
   -1.1763   -7.4337   33.2877 C   0  0  0  0  0  0  0  0  0  0  0  0
   -1.5775   -7.9209   32.1354 N   0  0  0  0  0  0  0  0  0  0  0  0
   -0.9174   -7.2033   31.1829 N   0  0  0  0  0  0  0  0  0  0  0  0
   -0.1157   -6.2952   31.7220 N   0  0  0  0  0  0  0  0  0  0  0  0
   -0.2163   -6.4410   33.0657 N   0  0  0  0  0  0  0  0  0  0  0  0
    3.8854   -5.1263   35.4510 N   0  0  0  0  0  0  0  0  0  0  0  0
    4.6648   -6.1201   35.9844 C   0  0  0  0  0  0  0  0  0  0  0  0
    5.7468   -6.0971   36.8664 C   0  0  0  0  0  0  0  0  0  0  0  0
    6.2752   -9.4670   36.9672 H   0  0  0  0  0  0  0  0  0  0  0  0
    4.3350   -9.4529   35.3889 H   0  0  0  0  0  0  0  0  0  0  0  0
    0.5572   -5.6325   36.2515 H   0  0  0  0  0  0  0  0  0  0  0  0
   -1.1284   -7.3339   36.6692 H   0  0  0  0  0  0  0  0  0  0  0  0
   -2.2607   -8.5055   34.8147 H   0  0  0  0  0  0  0  0  0  0  0  0
    3.9714   -4.1339   35.6161 H   0  0  0  0  0  0  0  0  0  0  0  0
    6.1469   -5.1800   37.2821 H   0  0  0  0  0  0  0  0  0  0  0  0
  1  2  1  0
  2  3  2  0
  3  4  1  0
  4  5  2  0
  5  6  1  0
  6  7  2  0
  7  8  1  0
  8  9  1  0
  9 10  2  0
 10 11  1  0
 11 12  2  0
 12 13  1  0
 13 14  2  0
 14 15  1  0
 15 16  2  0
 16 17  1  0
  7 18  1  0
 18 19  1  0
 19 20  2  0
 20  2  1  0
 19  5  1  0
 17  9  1  0
 17 13  1  0
  3 21  1  0
  4 22  1  0
 10 23  1  0
 11 24  1  0
 12 25  1  0
 18 26  1  0
 20 27  1  0
M  END
>  <Energy>  (508) 
34.440117457446149

>  <compound_id>  (508) 
1820

>  <target_id>  (508) 
1

>  <reference_id>  (508) 
25

>  <inspiration_ids>  (508) 
[25, 140]

>  <energy_score>  (508) 
-29.52759494424197

>  <distance_score>  (508) 
1.3948397175146843

>  <path>  (508) 
/opt/xchem-fragalysis-2/maxwin/BulkDock/SCRATCH/505732/C1820-P25/C1820-P25.minimised.mol

>  <scratch_subdir>  (508) 
/opt/xchem-fragalysis-2/maxwin/BulkDock/SCRATCH/505732/C1820-P25

>  <fragmenstein_runtime>  (508) 
2.9608988761901855

>  <fragmenstein_outcome>  (508) 
too moved

>  <fragmenstein_mode>  (508) 
expansion

>  <fragmenstein_error>  (508) 


$$$$
C1820-P140
     RDKit          3D

 27 30  0  0  0  0  0  0  0  0999 V2000
    7.1643   -8.1315   38.3323 F   0  0  0  0  0  0  0  0  0  0  0  0
    6.1226   -7.9849   37.5027 C   0  0  0  0  0  0  0  0  0  0  0  0
    6.1051   -8.6994   36.3087 C   0  0  0  0  0  0  0  0  0  0  0  0
    5.0311   -8.5672   35.4183 C   0  0  0  0  0  0  0  0  0  0  0  0
    3.9771   -7.6968   35.7497 C   0  0  0  0  0  0  0  0  0  0  0  0
    2.8181   -7.3971   35.0572 N   0  0  0  0  0  0  0  0  0  0  0  0
    2.1723   -6.5678   35.8505 C   0  0  0  0  0  0  0  0  0  0  0  0
    0.6209   -5.8322   35.6393 S   0  0  0  0  0  0  0  0  0  0  0  0
    0.5806   -5.8211   33.9186 C   0  0  0  0  0  0  0  0  0  0  0  0
    1.4327   -5.0470   33.2217 C   0  0  0  0  0  0  0  0  0  0  0  0
    1.3979   -5.0794   31.7843 C   0  0  0  0  0  0  0  0  0  0  0  0
    0.5381   -5.8671   31.1210 C   0  0  0  0  0  0  0  0  0  0  0  0
   -0.3762   -6.6725   31.8264 C   0  0  0  0  0  0  0  0  0  0  0  0
   -1.3023   -7.5108   31.4268 N   0  0  0  0  0  0  0  0  0  0  0  0
   -1.8752   -7.9716   32.5706 N   0  0  0  0  0  0  0  0  0  0  0  0
   -1.3490   -7.4029   33.6463 N   0  0  0  0  0  0  0  0  0  0  0  0
   -0.3473   -6.6101   33.2186 N   0  0  0  0  0  0  0  0  0  0  0  0
    2.8606   -6.2984   36.9965 N   0  0  0  0  0  0  0  0  0  0  0  0
    4.0299   -7.0099   36.9612 C   0  0  0  0  0  0  0  0  0  0  0  0
    5.0871   -7.1239   37.8663 C   0  0  0  0  0  0  0  0  0  0  0  0
    6.9295   -9.3676   36.0766 H   0  0  0  0  0  0  0  0  0  0  0  0
    5.0136   -9.1408   34.4976 H   0  0  0  0  0  0  0  0  0  0  0  0
    2.1690   -4.4059   33.6979 H   0  0  0  0  0  0  0  0  0  0  0  0
    2.1009   -4.4496   31.2448 H   0  0  0  0  0  0  0  0  0  0  0  0
    0.5348   -5.8873   30.0415 H   0  0  0  0  0  0  0  0  0  0  0  0
    2.5321   -5.7130   37.7507 H   0  0  0  0  0  0  0  0  0  0  0  0
    5.1133   -6.5892   38.8085 H   0  0  0  0  0  0  0  0  0  0  0  0
  1  2  1  0
  2  3  2  0
  3  4  1  0
  4  5  2  0
  5  6  1  0
  6  7  2  0
  7  8  1  0
  8  9  1  0
  9 10  2  0
 10 11  1  0
 11 12  2  0
 12 13  1  0
 13 14  2  0
 14 15  1  0
 15 16  2  0
 16 17  1  0
  7 18  1  0
 18 19  1  0
 19 20  2  0
 20  2  1  0
 19  5  1  0
 17  9  1  0
 17 13  1  0
  3 21  1  0
  4 22  1  0
 10 23  1  0
 11 24  1  0
 12 25  1  0
 18 26  1  0
 20 27  1  0
M  END
>  <Energy>  (509) 
32.808528386484284

>  <compound_id>  (509) 
1820

>  <target_id>  (509) 
1

>  <reference_id>  (509) 
140

>  <inspiration_ids>  (509) 
[25, 140]

>  <energy_score>  (509) 
-31.159184015204822

>  <distance_score>  (509) 
1.9523039909122946

>  <path>  (509) 
/opt/xchem-fragalysis-2/maxwin/BulkDock/SCRATCH/505732/C1820-P140/C1820-P140.minimised.mol

>  <scratch_subdir>  (509) 
/opt/xchem-fragalysis-2/maxwin/BulkDock/SCRATCH/505732/C1820-P140

>  <fragmenstein_runtime>  (509) 
3.332170009613037

>  <fragmenstein_outcome>  (509) 
too moved

>  <fragmenstein_mode>  (509) 
expansion

>  <fragmenstein_error>  (509) 


$$$$
C1823-P25
     RDKit          3D

 32 33  0  0  0  0  0  0  0  0999 V2000
    1.0975   -5.7751   37.6133 C   0  0  0  0  0  0  0  0  0  0  0  0
    1.3551   -5.0599   36.3624 C   0  0  0  0  0  0  0  0  0  0  0  0
    2.6240   -4.8577   35.9081 N   0  0  0  0  0  0  0  0  0  0  0  0
    2.5040   -4.2678   34.7291 N   0  0  0  0  0  0  0  0  0  0  0  0
    1.1809   -4.1834   34.5077 N   0  0  0  0  0  0  0  0  0  0  0  0
    0.6506   -3.6007   33.3022 C   0  0  0  0  0  0  0  0  0  0  0  0
    1.1369   -4.1984   31.9764 C   0  0  0  0  0  0  0  0  0  0  0  0
    0.7803   -5.5888   31.5786 N   0  0  0  0  0  0  0  0  0  0  0  0
   -0.5856   -6.3551   32.1569 S   0  0  0  0  0  0  0  0  0  0  0  0
   -0.9242   -7.3954   31.2108 O   0  0  0  0  0  0  0  0  0  0  0  0
   -1.4840   -5.2750   32.4471 O   0  0  0  0  0  0  0  0  0  0  0  0
   -0.1461   -7.1426   33.6660 C   0  0  0  0  0  0  0  0  0  0  0  0
   -1.1594   -7.6756   34.4502 C   0  0  0  0  0  0  0  0  0  0  0  0
   -0.8444   -8.3106   35.6531 C   0  0  0  0  0  0  0  0  0  0  0  0
    0.4818   -8.4910   36.0239 C   0  0  0  0  0  0  0  0  0  0  0  0
    0.8157   -9.2214   37.1215 O   0  0  0  0  0  0  0  0  0  0  0  0
    1.5009   -7.9469   35.2599 C   0  0  0  0  0  0  0  0  0  0  0  0
    1.1753   -7.2455   34.0949 C   0  0  0  0  0  0  0  0  0  0  0  0
    0.4072   -4.6113   35.5250 N   0  0  0  0  0  0  0  0  0  0  0  0
    1.8317   -6.5665   37.7862 H   0  0  0  0  0  0  0  0  0  0  0  0
    1.1738   -5.0767   38.4537 H   0  0  0  0  0  0  0  0  0  0  0  0
    0.0914   -6.2023   37.6427 H   0  0  0  0  0  0  0  0  0  0  0  0
   -0.4348   -3.5475   33.3929 H   0  0  0  0  0  0  0  0  0  0  0  0
    0.9823   -2.5535   33.3305 H   0  0  0  0  0  0  0  0  0  0  0  0
    0.7752   -3.5483   31.1692 H   0  0  0  0  0  0  0  0  0  0  0  0
    2.2320   -4.1438   31.9397 H   0  0  0  0  0  0  0  0  0  0  0  0
    0.8434   -5.7341   30.5677 H   0  0  0  0  0  0  0  0  0  0  0  0
   -2.1874   -7.6317   34.1295 H   0  0  0  0  0  0  0  0  0  0  0  0
   -1.6417   -8.7544   36.2362 H   0  0  0  0  0  0  0  0  0  0  0  0
    0.0644   -9.8107   37.3234 H   0  0  0  0  0  0  0  0  0  0  0  0
    2.5353   -8.0447   35.5786 H   0  0  0  0  0  0  0  0  0  0  0  0
    1.9763   -6.7676   33.5427 H   0  0  0  0  0  0  0  0  0  0  0  0
  1  2  1  0
  2  3  1  0
  3  4  2  0
  4  5  1  0
  5  6  1  0
  6  7  1  0
  7  8  1  0
  8  9  1  0
  9 10  2  0
  9 11  2  0
  9 12  1  0
 12 13  2  0
 13 14  1  0
 14 15  2  0
 15 16  1  0
 15 17  1  0
 17 18  2  0
  5 19  1  0
 19  2  2  0
 18 12  1  0
  1 20  1  0
  1 21  1  0
  1 22  1  0
  6 23  1  0
  6 24  1  0
  7 25  1  0
  7 26  1  0
  8 27  1  0
 13 28  1  0
 14 29  1  0
 16 30  1  0
 17 31  1  0
 18 32  1  0
M  END
>  <Energy>  (510) 
-18.390139770289043

>  <compound_id>  (510) 
1823

>  <target_id>  (510) 
1

>  <reference_id>  (510) 
25

>  <inspiration_ids>  (510) 
[25, 145]

>  <energy_score>  (510) 
-155.20504549854996

>  <distance_score>  (510) 
2.122362312018049

>  <path>  (510) 
/opt/xchem-fragalysis-2/maxwin/BulkDock/SCRATCH/505732/C1823-P25/C1823-P25.minimised.mol

>  <scratch_subdir>  (510) 
/opt/xchem-fragalysis-2/maxwin/BulkDock/SCRATCH/505732/C1823-P25

>  <fragmenstein_runtime>  (510) 
49.43417310714722

>  <fragmenstein_outcome>  (510) 
too moved

>  <fragmenstein_mode>  (510) 
expansion

>  <fragmenstein_error>  (510) 


$$$$
C1823-P145
     RDKit          3D

 32 33  0  0  0  0  0  0  0  0999 V2000
    3.2839   -6.7471   35.9958 C   0  0  0  0  0  0  0  0  0  0  0  0
    2.4294   -5.5900   35.6765 C   0  0  0  0  0  0  0  0  0  0  0  0
    1.4419   -5.1428   36.5044 N   0  0  0  0  0  0  0  0  0  0  0  0
    0.7215   -4.2831   35.7942 N   0  0  0  0  0  0  0  0  0  0  0  0
    1.2925   -4.2655   34.5681 N   0  0  0  0  0  0  0  0  0  0  0  0
    0.5778   -3.7493   33.4150 C   0  0  0  0  0  0  0  0  0  0  0  0
    1.2107   -3.9367   32.0251 C   0  0  0  0  0  0  0  0  0  0  0  0
    1.0734   -5.2509   31.3224 N   0  0  0  0  0  0  0  0  0  0  0  0
   -0.4110   -5.9664   31.1634 S   0  0  0  0  0  0  0  0  0  0  0  0
   -0.3868   -6.8261   30.0040 O   0  0  0  0  0  0  0  0  0  0  0  0
   -1.3602   -4.8988   31.3409 O   0  0  0  0  0  0  0  0  0  0  0  0
   -0.6302   -7.0365   32.5053 C   0  0  0  0  0  0  0  0  0  0  0  0
   -1.7764   -7.7893   32.4888 C   0  0  0  0  0  0  0  0  0  0  0  0
   -2.1976   -8.2834   33.6854 C   0  0  0  0  0  0  0  0  0  0  0  0
   -1.4427   -8.1147   34.8181 C   0  0  0  0  0  0  0  0  0  0  0  0
   -1.9057   -8.7284   35.9125 O   0  0  0  0  0  0  0  0  0  0  0  0
   -0.2203   -7.5166   34.8154 C   0  0  0  0  0  0  0  0  0  0  0  0
    0.1947   -6.9967   33.6136 C   0  0  0  0  0  0  0  0  0  0  0  0
    2.4230   -5.0014   34.4693 N   0  0  0  0  0  0  0  0  0  0  0  0
    3.1164   -7.5633   35.2863 H   0  0  0  0  0  0  0  0  0  0  0  0
    4.3404   -6.4653   35.9550 H   0  0  0  0  0  0  0  0  0  0  0  0
    3.0713   -7.1237   37.0011 H   0  0  0  0  0  0  0  0  0  0  0  0
   -0.4391   -4.1427   33.4722 H   0  0  0  0  0  0  0  0  0  0  0  0
    0.5102   -2.6702   33.6043 H   0  0  0  0  0  0  0  0  0  0  0  0
    0.7864   -3.1828   31.3489 H   0  0  0  0  0  0  0  0  0  0  0  0
    2.2837   -3.7147   32.0753 H   0  0  0  0  0  0  0  0  0  0  0  0
    1.5343   -5.2556   30.4093 H   0  0  0  0  0  0  0  0  0  0  0  0
   -2.4160   -7.8689   31.6214 H   0  0  0  0  0  0  0  0  0  0  0  0
   -3.1518   -8.7679   33.7868 H   0  0  0  0  0  0  0  0  0  0  0  0
   -2.0278   -9.6655   35.6368 H   0  0  0  0  0  0  0  0  0  0  0  0
    0.3714   -7.4793   35.7202 H   0  0  0  0  0  0  0  0  0  0  0  0
    1.1651   -6.5529   33.5091 H   0  0  0  0  0  0  0  0  0  0  0  0
  1  2  1  0
  2  3  1  0
  3  4  2  0
  4  5  1  0
  5  6  1  0
  6  7  1  0
  7  8  1  0
  8  9  1  0
  9 10  2  0
  9 11  2  0
  9 12  1  0
 12 13  2  0
 13 14  1  0
 14 15  2  0
 15 16  1  0
 15 17  1  0
 17 18  2  0
  5 19  1  0
 19  2  2  0
 18 12  1  0
  1 20  1  0
  1 21  1  0
  1 22  1  0
  6 23  1  0
  6 24  1  0
  7 25  1  0
  7 26  1  0
  8 27  1  0
 13 28  1  0
 14 29  1  0
 16 30  1  0
 17 31  1  0
 18 32  1  0
M  END
>  <Energy>  (511) 
-3.6368978110451282

>  <compound_id>  (511) 
1823

>  <target_id>  (511) 
1

>  <reference_id>  (511) 
145

>  <inspiration_ids>  (511) 
[25, 145]

>  <energy_score>  (511) 
-140.4518035393044

>  <distance_score>  (511) 
1.8232088768851356

>  <path>  (511) 
/opt/xchem-fragalysis-2/maxwin/BulkDock/SCRATCH/505732/C1823-P145/C1823-P145.minimised.mol

>  <scratch_subdir>  (511) 
/opt/xchem-fragalysis-2/maxwin/BulkDock/SCRATCH/505732/C1823-P145

>  <fragmenstein_runtime>  (511) 
48.59482002258301

>  <fragmenstein_outcome>  (511) 
too moved

>  <fragmenstein_mode>  (511) 
expansion

>  <fragmenstein_error>  (511) 


$$$$
C1823-P25
     RDKit          3D

 32 33  0  0  0  0  0  0  0  0999 V2000
    0.0827   -0.2727   28.0130 C   0  0  0  0  0  0  0  0  0  0  0  0
    0.2233   -1.5041   28.7972 C   0  0  0  0  0  0  0  0  0  0  0  0
   -0.8423   -2.2970   29.1097 N   0  0  0  0  0  0  0  0  0  0  0  0
   -0.3708   -3.2598   29.8822 N   0  0  0  0  0  0  0  0  0  0  0  0
    0.9436   -2.9995   29.9991 N   0  0  0  0  0  0  0  0  0  0  0  0
    1.7869   -3.7191   30.9327 C   0  0  0  0  0  0  0  0  0  0  0  0
    1.4679   -3.3099   32.3713 C   0  0  0  0  0  0  0  0  0  0  0  0
    1.7820   -4.3797   33.3428 N   0  0  0  0  0  0  0  0  0  0  0  0
    0.5813   -4.7878   34.4837 S   0  0  0  0  0  0  0  0  0  0  0  0
    1.3025   -5.5112   35.5084 O   0  0  0  0  0  0  0  0  0  0  0  0
   -0.2046   -3.6118   34.7587 O   0  0  0  0  0  0  0  0  0  0  0  0
   -0.3855   -5.9713   33.5914 C   0  0  0  0  0  0  0  0  0  0  0  0
   -0.4564   -5.8801   32.2099 C   0  0  0  0  0  0  0  0  0  0  0  0
   -0.8410   -6.9457   31.4280 C   0  0  0  0  0  0  0  0  0  0  0  0
   -1.3371   -8.0467   32.0589 C   0  0  0  0  0  0  0  0  0  0  0  0
   -1.6596   -9.1384   31.3348 O   0  0  0  0  0  0  0  0  0  0  0  0
   -1.4966   -8.0593   33.4321 C   0  0  0  0  0  0  0  0  0  0  0  0
   -0.9441   -7.0630   34.2234 C   0  0  0  0  0  0  0  0  0  0  0  0
    1.3763   -1.9055   29.3583 N   0  0  0  0  0  0  0  0  0  0  0  0
    1.0091   -0.0299   27.4844 H   0  0  0  0  0  0  0  0  0  0  0  0
   -0.7187   -0.3697   27.2745 H   0  0  0  0  0  0  0  0  0  0  0  0
   -0.1643    0.5674   28.6696 H   0  0  0  0  0  0  0  0  0  0  0  0
    2.8321   -3.4937   30.6918 H   0  0  0  0  0  0  0  0  0  0  0  0
    1.6372   -4.7820   30.7352 H   0  0  0  0  0  0  0  0  0  0  0  0
    2.0635   -2.4282   32.6382 H   0  0  0  0  0  0  0  0  0  0  0  0
    0.4231   -2.9943   32.4617 H   0  0  0  0  0  0  0  0  0  0  0  0
    2.7060   -4.3774   33.7783 H   0  0  0  0  0  0  0  0  0  0  0  0
   -0.2136   -4.9709   31.7025 H   0  0  0  0  0  0  0  0  0  0  0  0
   -0.7961   -6.8900   30.3466 H   0  0  0  0  0  0  0  0  0  0  0  0
   -0.8826   -9.4039   30.7956 H   0  0  0  0  0  0  0  0  0  0  0  0
   -2.0241   -8.8658   33.9092 H   0  0  0  0  0  0  0  0  0  0  0  0
   -0.9586   -7.1428   35.3072 H   0  0  0  0  0  0  0  0  0  0  0  0
  1  2  1  0
  2  3  1  0
  3  4  2  0
  4  5  1  0
  5  6  1  0
  6  7  1  0
  7  8  1  0
  8  9  1  0
  9 10  2  0
  9 11  2  0
  9 12  1  0
 12 13  2  0
 13 14  1  0
 14 15  2  0
 15 16  1  0
 15 17  1  0
 17 18  2  0
  5 19  1  0
 19  2  2  0
 18 12  1  0
  1 20  1  0
  1 21  1  0
  1 22  1  0
  6 23  1  0
  6 24  1  0
  7 25  1  0
  7 26  1  0
  8 27  1  0
 13 28  1  0
 14 29  1  0
 16 30  1  0
 17 31  1  0
 18 32  1  0
M  END
>  <Energy>  (512) 
-15.853794794254005

>  <compound_id>  (512) 
1823

>  <target_id>  (512) 
1

>  <reference_id>  (512) 
25

>  <inspiration_ids>  (512) 
[25, 147]

>  <energy_score>  (512) 
-21.873613270298506

>  <distance_score>  (512) 
1.9819352330742224

>  <path>  (512) 
/opt/xchem-fragalysis-2/maxwin/BulkDock/SCRATCH/505732/C1823-P25/C1823-P25.minimised.mol

>  <scratch_subdir>  (512) 
/opt/xchem-fragalysis-2/maxwin/BulkDock/SCRATCH/505732/C1823-P25

>  <fragmenstein_runtime>  (512) 
67.84189343452454

>  <fragmenstein_outcome>  (512) 
too moved

>  <fragmenstein_mode>  (512) 
expansion

>  <fragmenstein_error>  (512) 


$$$$
C1823-P147
     RDKit          3D

 32 33  0  0  0  0  0  0  0  0999 V2000
   -0.1524   -0.4122   28.1874 C   0  0  0  0  0  0  0  0  0  0  0  0
   -0.2458   -1.5384   29.1234 C   0  0  0  0  0  0  0  0  0  0  0  0
   -1.4160   -2.1947   29.3835 N   0  0  0  0  0  0  0  0  0  0  0  0
   -1.1613   -3.0308   30.3782 N   0  0  0  0  0  0  0  0  0  0  0  0
    0.1312   -2.8230   30.6765 N   0  0  0  0  0  0  0  0  0  0  0  0
    0.8177   -3.4929   31.7544 C   0  0  0  0  0  0  0  0  0  0  0  0
   -0.0264   -3.6773   33.0242 C   0  0  0  0  0  0  0  0  0  0  0  0
    0.7746   -4.2895   34.1038 N   0  0  0  0  0  0  0  0  0  0  0  0
    0.2539   -5.6646   34.9281 S   0  0  0  0  0  0  0  0  0  0  0  0
    1.4123   -6.1885   35.6143 O   0  0  0  0  0  0  0  0  0  0  0  0
   -0.9828   -5.3582   35.6016 O   0  0  0  0  0  0  0  0  0  0  0  0
   -0.0821   -6.7484   33.5736 C   0  0  0  0  0  0  0  0  0  0  0  0
    0.7533   -6.6367   32.4724 C   0  0  0  0  0  0  0  0  0  0  0  0
    0.3457   -7.1204   31.2432 C   0  0  0  0  0  0  0  0  0  0  0  0
   -0.7577   -7.9301   31.1832 C   0  0  0  0  0  0  0  0  0  0  0  0
   -0.9741   -8.6531   30.0588 O   0  0  0  0  0  0  0  0  0  0  0  0
   -1.5767   -8.0898   32.2817 C   0  0  0  0  0  0  0  0  0  0  0  0
   -1.2576   -7.4759   33.4909 C   0  0  0  0  0  0  0  0  0  0  0  0
    0.7760   -1.9428   29.8929 N   0  0  0  0  0  0  0  0  0  0  0  0
    0.8167   -0.3954   27.6821 H   0  0  0  0  0  0  0  0  0  0  0  0
   -0.9446   -0.4626   27.4359 H   0  0  0  0  0  0  0  0  0  0  0  0
   -0.2668    0.5339   28.7264 H   0  0  0  0  0  0  0  0  0  0  0  0
    1.7017   -2.8909   32.0007 H   0  0  0  0  0  0  0  0  0  0  0  0
    1.1858   -4.4227   31.3270 H   0  0  0  0  0  0  0  0  0  0  0  0
   -0.3677   -2.6985   33.3820 H   0  0  0  0  0  0  0  0  0  0  0  0
   -0.9294   -4.2592   32.8145 H   0  0  0  0  0  0  0  0  0  0  0  0
    1.6320   -3.8607   34.4492 H   0  0  0  0  0  0  0  0  0  0  0  0
    1.6944   -6.0989   32.5497 H   0  0  0  0  0  0  0  0  0  0  0  0
    0.9042   -6.9082   30.3407 H   0  0  0  0  0  0  0  0  0  0  0  0
   -0.2209   -9.2802   29.9849 H   0  0  0  0  0  0  0  0  0  0  0  0
   -2.4702   -8.6854   32.1994 H   0  0  0  0  0  0  0  0  0  0  0  0
   -1.9126   -7.5701   34.3518 H   0  0  0  0  0  0  0  0  0  0  0  0
  1  2  1  0
  2  3  1  0
  3  4  2  0
  4  5  1  0
  5  6  1  0
  6  7  1  0
  7  8  1  0
  8  9  1  0
  9 10  2  0
  9 11  2  0
  9 12  1  0
 12 13  2  0
 13 14  1  0
 14 15  2  0
 15 16  1  0
 15 17  1  0
 17 18  2  0
  5 19  1  0
 19  2  2  0
 18 12  1  0
  1 20  1  0
  1 21  1  0
  1 22  1  0
  6 23  1  0
  6 24  1  0
  7 25  1  0
  7 26  1  0
  8 27  1  0
 13 28  1  0
 14 29  1  0
 16 30  1  0
 17 31  1  0
 18 32  1  0
M  END
>  <Energy>  (513) 
-17.087008349040481

>  <compound_id>  (513) 
1823

>  <target_id>  (513) 
1

>  <reference_id>  (513) 
147

>  <inspiration_ids>  (513) 
[25, 147]

>  <energy_score>  (513) 
-23.106826825082436

>  <distance_score>  (513) 
1.7382748400849761

>  <path>  (513) 
/opt/xchem-fragalysis-2/maxwin/BulkDock/SCRATCH/505732/C1823-P147/C1823-P147.minimised.mol

>  <scratch_subdir>  (513) 
/opt/xchem-fragalysis-2/maxwin/BulkDock/SCRATCH/505732/C1823-P147

>  <fragmenstein_runtime>  (513) 
70.70915079116821

>  <fragmenstein_outcome>  (513) 
too moved

>  <fragmenstein_mode>  (513) 
expansion

>  <fragmenstein_error>  (513) 


$$$$
C1824-P25
     RDKit          3D

 33 34  0  0  0  0  0  0  0  0999 V2000
    4.0408   -7.0858   34.7764 C   0  0  0  0  0  0  0  0  0  0  0  0
    2.8177   -6.6276   35.4552 C   0  0  0  0  0  0  0  0  0  0  0  0
    2.2057   -7.2785   36.4216 N   0  0  0  0  0  0  0  0  0  0  0  0
    1.1710   -6.4827   36.8240 N   0  0  0  0  0  0  0  0  0  0  0  0
    1.1260   -5.3645   36.1173 N   0  0  0  0  0  0  0  0  0  0  0  0
    2.1036   -5.4722   35.2037 N   0  0  0  0  0  0  0  0  0  0  0  0
    2.2604   -4.4603   34.1724 C   0  0  0  0  0  0  0  0  0  0  0  0
    1.9862   -4.9820   32.7627 C   0  0  0  0  0  0  0  0  0  0  0  0
    0.8862   -4.4042   32.0049 N   0  0  0  0  0  0  0  0  0  0  0  0
   -0.6477   -4.3093   32.6213 S   0  0  0  0  0  0  0  0  0  0  0  0
   -1.4688   -3.8375   31.5350 O   0  0  0  0  0  0  0  0  0  0  0  0
   -0.5809   -3.6350   33.8871 O   0  0  0  0  0  0  0  0  0  0  0  0
   -0.9880   -5.9092   32.8184 N   0  0  0  0  0  0  0  0  0  0  0  0
   -0.8253   -6.9262   31.7971 C   0  0  0  0  0  0  0  0  0  0  0  0
   -1.5961   -8.0983   32.3670 C   0  0  0  0  0  0  0  0  0  0  0  0
   -1.5107   -7.9229   33.8784 C   0  0  0  0  0  0  0  0  0  0  0  0
   -0.8864   -6.5657   34.1103 C   0  0  0  0  0  0  0  0  0  0  0  0
    3.8587   -8.0339   34.2630 H   0  0  0  0  0  0  0  0  0  0  0  0
    4.8348   -7.2521   35.5116 H   0  0  0  0  0  0  0  0  0  0  0  0
    4.4124   -6.3581   34.0508 H   0  0  0  0  0  0  0  0  0  0  0  0
    3.3142   -4.1598   34.2412 H   0  0  0  0  0  0  0  0  0  0  0  0
    1.6864   -3.5740   34.4482 H   0  0  0  0  0  0  0  0  0  0  0  0
    1.8633   -6.0642   32.7680 H   0  0  0  0  0  0  0  0  0  0  0  0
    2.8846   -4.7629   32.1741 H   0  0  0  0  0  0  0  0  0  0  0  0
    0.8785   -4.4816   30.9885 H   0  0  0  0  0  0  0  0  0  0  0  0
    0.2263   -7.1721   31.7475 H   0  0  0  0  0  0  0  0  0  0  0  0
   -1.1531   -6.6559   30.8028 H   0  0  0  0  0  0  0  0  0  0  0  0
   -1.2271   -9.0575   32.0196 H   0  0  0  0  0  0  0  0  0  0  0  0
   -2.6335   -8.0628   32.0415 H   0  0  0  0  0  0  0  0  0  0  0  0
   -2.4738   -8.0325   34.3763 H   0  0  0  0  0  0  0  0  0  0  0  0
   -0.8667   -8.6420   34.3650 H   0  0  0  0  0  0  0  0  0  0  0  0
    0.1615   -6.7444   34.3246 H   0  0  0  0  0  0  0  0  0  0  0  0
   -1.3551   -6.0310   34.9344 H   0  0  0  0  0  0  0  0  0  0  0  0
  1  2  1  0
  2  3  2  0
  3  4  1  0
  4  5  2  0
  5  6  1  0
  6  7  1  0
  7  8  1  0
  8  9  1  0
  9 10  1  0
 10 11  2  0
 10 12  2  0
 10 13  1  0
 13 14  1  0
 14 15  1  0
 15 16  1  0
 16 17  1  0
  6  2  1  0
 17 13  1  0
  1 18  1  0
  1 19  1  0
  1 20  1  0
  7 21  1  0
  7 22  1  0
  8 23  1  0
  8 24  1  0
  9 25  1  0
 14 26  1  0
 14 27  1  0
 15 28  1  0
 15 29  1  0
 16 30  1  0
 16 31  1  0
 17 32  1  0
 17 33  1  0
M  END
>  <Energy>  (514) 
-162.27574843942608

>  <compound_id>  (514) 
1824

>  <target_id>  (514) 
1

>  <reference_id>  (514) 
25

>  <inspiration_ids>  (514) 
[25, 148]

>  <energy_score>  (514) 
-35.60500754807022

>  <distance_score>  (514) 
1.4414554010103031

>  <path>  (514) 
/opt/xchem-fragalysis-2/maxwin/BulkDock/SCRATCH/505732/C1824-P25/C1824-P25.minimised.mol

>  <scratch_subdir>  (514) 
/opt/xchem-fragalysis-2/maxwin/BulkDock/SCRATCH/505732/C1824-P25

>  <fragmenstein_runtime>  (514) 
3.679395914077759

>  <fragmenstein_outcome>  (514) 
too moved

>  <fragmenstein_mode>  (514) 
expansion

>  <fragmenstein_error>  (514) 


$$$$
C1824-P148
     RDKit          3D

 33 34  0  0  0  0  0  0  0  0999 V2000
    4.3534   -6.6659   35.1425 C   0  0  0  0  0  0  0  0  0  0  0  0
    2.8997   -6.8145   35.2845 C   0  0  0  0  0  0  0  0  0  0  0  0
    2.2910   -7.8608   35.7957 N   0  0  0  0  0  0  0  0  0  0  0  0
    0.9733   -7.5219   35.8934 N   0  0  0  0  0  0  0  0  0  0  0  0
    0.7614   -6.3066   35.4222 N   0  0  0  0  0  0  0  0  0  0  0  0
    1.9430   -5.8764   34.9587 N   0  0  0  0  0  0  0  0  0  0  0  0
    2.0951   -4.5496   34.3907 C   0  0  0  0  0  0  0  0  0  0  0  0
    2.0649   -4.4815   32.8569 C   0  0  0  0  0  0  0  0  0  0  0  0
    0.8334   -3.9401   32.2518 N   0  0  0  0  0  0  0  0  0  0  0  0
   -0.6341   -4.5989   32.6934 S   0  0  0  0  0  0  0  0  0  0  0  0
   -1.6225   -4.1529   31.7434 O   0  0  0  0  0  0  0  0  0  0  0  0
   -0.7855   -4.4287   34.1080 O   0  0  0  0  0  0  0  0  0  0  0  0
   -0.1983   -6.1704   32.3069 N   0  0  0  0  0  0  0  0  0  0  0  0
    0.0301   -6.4379   30.8796 C   0  0  0  0  0  0  0  0  0  0  0  0
   -0.5548   -7.7931   30.6139 C   0  0  0  0  0  0  0  0  0  0  0  0
   -1.5025   -8.0585   31.7637 C   0  0  0  0  0  0  0  0  0  0  0  0
   -0.9548   -7.2707   32.9270 C   0  0  0  0  0  0  0  0  0  0  0  0
    4.6215   -6.0443   34.2838 H   0  0  0  0  0  0  0  0  0  0  0  0
    4.8342   -7.6419   35.0240 H   0  0  0  0  0  0  0  0  0  0  0  0
    4.7705   -6.1960   36.0389 H   0  0  0  0  0  0  0  0  0  0  0  0
    3.0850   -4.2109   34.7232 H   0  0  0  0  0  0  0  0  0  0  0  0
    1.3886   -3.8703   34.8756 H   0  0  0  0  0  0  0  0  0  0  0  0
    2.3249   -5.4412   32.4034 H   0  0  0  0  0  0  0  0  0  0  0  0
    2.8575   -3.7873   32.5476 H   0  0  0  0  0  0  0  0  0  0  0  0
    0.8590   -3.7026   31.2624 H   0  0  0  0  0  0  0  0  0  0  0  0
    1.1004   -6.4233   30.6639 H   0  0  0  0  0  0  0  0  0  0  0  0
   -0.4204   -5.6864   30.2285 H   0  0  0  0  0  0  0  0  0  0  0  0
    0.2326   -8.5340   30.5697 H   0  0  0  0  0  0  0  0  0  0  0  0
   -1.0198   -7.8003   29.6290 H   0  0  0  0  0  0  0  0  0  0  0  0
   -2.4983   -7.7016   31.5239 H   0  0  0  0  0  0  0  0  0  0  0  0
   -1.5970   -9.1202   31.9800 H   0  0  0  0  0  0  0  0  0  0  0  0
   -0.2604   -7.8844   33.5016 H   0  0  0  0  0  0  0  0  0  0  0  0
   -1.7475   -6.9344   33.5991 H   0  0  0  0  0  0  0  0  0  0  0  0
  1  2  1  0
  2  3  2  0
  3  4  1  0
  4  5  2  0
  5  6  1  0
  6  7  1  0
  7  8  1  0
  8  9  1  0
  9 10  1  0
 10 11  2  0
 10 12  2  0
 10 13  1  0
 13 14  1  0
 14 15  1  0
 15 16  1  0
 16 17  1  0
  6  2  1  0
 17 13  1  0
  1 18  1  0
  1 19  1  0
  1 20  1  0
  7 21  1  0
  7 22  1  0
  8 23  1  0
  8 24  1  0
  9 25  1  0
 14 26  1  0
 14 27  1  0
 15 28  1  0
 15 29  1  0
 16 30  1  0
 16 31  1  0
 17 32  1  0
 17 33  1  0
M  END
>  <Energy>  (515) 
-168.46026055601263

>  <compound_id>  (515) 
1824

>  <target_id>  (515) 
1

>  <reference_id>  (515) 
148

>  <inspiration_ids>  (515) 
[25, 148]

>  <energy_score>  (515) 
-41.789519664655685

>  <distance_score>  (515) 
1.5095665925241986

>  <path>  (515) 
/opt/xchem-fragalysis-2/maxwin/BulkDock/SCRATCH/505732/C1824-P148/C1824-P148.minimised.mol

>  <scratch_subdir>  (515) 
/opt/xchem-fragalysis-2/maxwin/BulkDock/SCRATCH/505732/C1824-P148

>  <fragmenstein_runtime>  (515) 
4.6267712116241455

>  <fragmenstein_outcome>  (515) 
too moved

>  <fragmenstein_mode>  (515) 
expansion

>  <fragmenstein_error>  (515) 


$$$$
C1825-P25
     RDKit          3D

 31 32  0  0  0  0  0  0  0  0999 V2000
   -1.8225   -8.0496   34.1720 C   0  0  0  0  0  0  0  0  0  0  0  0
   -1.4202   -7.4510   32.9076 C   0  0  0  0  0  0  0  0  0  0  0  0
   -1.3326   -8.0745   31.6987 N   0  0  0  0  0  0  0  0  0  0  0  0
   -0.7588   -7.1983   30.8783 N   0  0  0  0  0  0  0  0  0  0  0  0
   -0.5246   -6.1171   31.6373 N   0  0  0  0  0  0  0  0  0  0  0  0
    0.3542   -5.0230   31.2885 C   0  0  0  0  0  0  0  0  0  0  0  0
    1.3356   -4.7613   32.4356 C   0  0  0  0  0  0  0  0  0  0  0  0
    0.6394   -4.3140   33.6677 N   0  0  0  0  0  0  0  0  0  0  0  0
    1.5611   -4.3252   35.0830 S   0  0  0  0  0  0  0  0  0  0  0  0
    2.9019   -3.8933   34.7430 O   0  0  0  0  0  0  0  0  0  0  0  0
    0.7906   -3.6969   36.1318 O   0  0  0  0  0  0  0  0  0  0  0  0
    1.7795   -5.9641   35.6488 C   0  0  0  0  0  0  0  0  0  0  0  0
    2.8435   -6.3834   36.4800 C   0  0  0  0  0  0  0  0  0  0  0  0
    2.5194   -7.6691   36.8447 C   0  0  0  0  0  0  0  0  0  0  0  0
    1.2868   -7.8962   36.3066 N   0  0  0  0  0  0  0  0  0  0  0  0
    0.3458   -8.9097   36.7075 C   0  0  0  0  0  0  0  0  0  0  0  0
    0.9260   -6.9723   35.3971 N   0  0  0  0  0  0  0  0  0  0  0  0
   -1.0090   -6.1872   32.8792 N   0  0  0  0  0  0  0  0  0  0  0  0
   -2.6704   -8.7145   34.0728 H   0  0  0  0  0  0  0  0  0  0  0  0
   -2.0702   -7.2966   34.9247 H   0  0  0  0  0  0  0  0  0  0  0  0
   -0.9787   -8.6003   34.5540 H   0  0  0  0  0  0  0  0  0  0  0  0
   -0.2825   -4.1528   31.0970 H   0  0  0  0  0  0  0  0  0  0  0  0
    0.8847   -5.2858   30.3693 H   0  0  0  0  0  0  0  0  0  0  0  0
    1.8894   -5.6779   32.6559 H   0  0  0  0  0  0  0  0  0  0  0  0
    2.0451   -3.9851   32.1307 H   0  0  0  0  0  0  0  0  0  0  0  0
   -0.2206   -4.8628   33.8551 H   0  0  0  0  0  0  0  0  0  0  0  0
    3.6877   -5.7967   36.8173 H   0  0  0  0  0  0  0  0  0  0  0  0
    2.9904   -8.3682   37.5227 H   0  0  0  0  0  0  0  0  0  0  0  0
    0.4508   -9.7637   36.0427 H   0  0  0  0  0  0  0  0  0  0  0  0
    0.5827   -9.2219   37.7289 H   0  0  0  0  0  0  0  0  0  0  0  0
   -0.6619   -8.4952   36.6980 H   0  0  0  0  0  0  0  0  0  0  0  0
  1  2  1  0
  2  3  1  0
  3  4  2  0
  4  5  1  0
  5  6  1  0
  6  7  1  0
  7  8  1  0
  8  9  1  0
  9 10  2  0
  9 11  2  0
  9 12  1  0
 12 13  1  0
 13 14  2  0
 14 15  1  0
 15 16  1  0
 15 17  1  0
  5 18  1  0
 18  2  2  0
 17 12  2  0
  1 19  1  0
  1 20  1  0
  1 21  1  0
  6 22  1  0
  6 23  1  0
  7 24  1  0
  7 25  1  0
  8 26  1  0
 13 27  1  0
 14 28  1  0
 16 29  1  0
 16 30  1  0
 16 31  1  0
M  END
>  <Energy>  (516) 
46.495647582259878

>  <compound_id>  (516) 
1825

>  <target_id>  (516) 
1

>  <reference_id>  (516) 
25

>  <inspiration_ids>  (516) 
[25, 149]

>  <energy_score>  (516) 
-44.377526421792936

>  <distance_score>  (516) 
1.716623579005205

>  <path>  (516) 
/opt/xchem-fragalysis-2/maxwin/BulkDock/SCRATCH/505732/C1825-P25/C1825-P25.minimised.mol

>  <scratch_subdir>  (516) 
/opt/xchem-fragalysis-2/maxwin/BulkDock/SCRATCH/505732/C1825-P25

>  <fragmenstein_runtime>  (516) 
2.3998451232910156

>  <fragmenstein_outcome>  (516) 
too moved

>  <fragmenstein_mode>  (516) 
expansion

>  <fragmenstein_error>  (516) 


$$$$
C1825-P149
     RDKit          3D

 31 32  0  0  0  0  0  0  0  0999 V2000
   -2.0865   -8.2788   32.5269 C   0  0  0  0  0  0  0  0  0  0  0  0
   -1.1736   -7.4056   31.8158 C   0  0  0  0  0  0  0  0  0  0  0  0
   -0.6169   -7.7754   30.6290 N   0  0  0  0  0  0  0  0  0  0  0  0
    0.1397   -6.7605   30.2504 N   0  0  0  0  0  0  0  0  0  0  0  0
   -0.0257   -5.8311   31.1995 N   0  0  0  0  0  0  0  0  0  0  0  0
    0.7104   -4.5933   31.1968 C   0  0  0  0  0  0  0  0  0  0  0  0
    1.5785   -4.4872   32.4360 C   0  0  0  0  0  0  0  0  0  0  0  0
    0.7702   -4.1285   33.6241 N   0  0  0  0  0  0  0  0  0  0  0  0
    1.6519   -4.1503   35.0851 S   0  0  0  0  0  0  0  0  0  0  0  0
    3.0320   -3.8103   34.8166 O   0  0  0  0  0  0  0  0  0  0  0  0
    0.8601   -3.4982   36.1025 O   0  0  0  0  0  0  0  0  0  0  0  0
    1.6887   -5.8108   35.5747 C   0  0  0  0  0  0  0  0  0  0  0  0
    2.2170   -6.3316   36.7732 C   0  0  0  0  0  0  0  0  0  0  0  0
    1.5844   -7.5506   36.9052 C   0  0  0  0  0  0  0  0  0  0  0  0
    0.6956   -7.5927   35.8687 N   0  0  0  0  0  0  0  0  0  0  0  0
   -0.6257   -8.1551   35.8494 C   0  0  0  0  0  0  0  0  0  0  0  0
    1.0022   -6.7384   34.8876 N   0  0  0  0  0  0  0  0  0  0  0  0
   -0.8610   -6.1655   32.2003 N   0  0  0  0  0  0  0  0  0  0  0  0
   -1.6766   -9.2785   32.5073 H   0  0  0  0  0  0  0  0  0  0  0  0
   -3.0404   -8.3091   32.0063 H   0  0  0  0  0  0  0  0  0  0  0  0
   -2.2502   -7.9685   33.5574 H   0  0  0  0  0  0  0  0  0  0  0  0
   -0.0176   -3.7780   31.1273 H   0  0  0  0  0  0  0  0  0  0  0  0
    1.3344   -4.5794   30.2964 H   0  0  0  0  0  0  0  0  0  0  0  0
    2.1150   -5.4264   32.6070 H   0  0  0  0  0  0  0  0  0  0  0  0
    2.3128   -3.6904   32.2722 H   0  0  0  0  0  0  0  0  0  0  0  0
   -0.0297   -4.7708   33.7490 H   0  0  0  0  0  0  0  0  0  0  0  0
    2.8328   -5.8310   37.5073 H   0  0  0  0  0  0  0  0  0  0  0  0
    1.5482   -8.2654   37.7176 H   0  0  0  0  0  0  0  0  0  0  0  0
   -0.7397   -8.6426   34.8929 H   0  0  0  0  0  0  0  0  0  0  0  0
   -0.7295   -8.8424   36.6769 H   0  0  0  0  0  0  0  0  0  0  0  0
   -1.3475   -7.3404   35.9444 H   0  0  0  0  0  0  0  0  0  0  0  0
  1  2  1  0
  2  3  1  0
  3  4  2  0
  4  5  1  0
  5  6  1  0
  6  7  1  0
  7  8  1  0
  8  9  1  0
  9 10  2  0
  9 11  2  0
  9 12  1  0
 12 13  1  0
 13 14  2  0
 14 15  1  0
 15 16  1  0
 15 17  1  0
  5 18  1  0
 18  2  2  0
 17 12  2  0
  1 19  1  0
  1 20  1  0
  1 21  1  0
  6 22  1  0
  6 23  1  0
  7 24  1  0
  7 25  1  0
  8 26  1  0
 13 27  1  0
 14 28  1  0
 16 29  1  0
 16 30  1  0
 16 31  1  0
M  END
>  <Energy>  (517) 
48.912033690881302

>  <compound_id>  (517) 
1825

>  <target_id>  (517) 
1

>  <reference_id>  (517) 
149

>  <inspiration_ids>  (517) 
[25, 149]

>  <energy_score>  (517) 
-41.96114031317066

>  <distance_score>  (517) 
1.5446736479949532

>  <path>  (517) 
/opt/xchem-fragalysis-2/maxwin/BulkDock/SCRATCH/505732/C1825-P149/C1825-P149.minimised.mol

>  <scratch_subdir>  (517) 
/opt/xchem-fragalysis-2/maxwin/BulkDock/SCRATCH/505732/C1825-P149

>  <fragmenstein_runtime>  (517) 
2.4831817150115967

>  <fragmenstein_outcome>  (517) 
too moved

>  <fragmenstein_mode>  (517) 
expansion

>  <fragmenstein_error>  (517) 


$$$$
C1825-P25
     RDKit          3D

 31 32  0  0  0  0  0  0  0  0999 V2000
    0.2891   -7.6529   40.5010 C   0  0  0  0  0  0  0  0  0  0  0  0
   -0.0274   -6.7134   39.4206 C   0  0  0  0  0  0  0  0  0  0  0  0
   -0.8677   -5.6492   39.5763 N   0  0  0  0  0  0  0  0  0  0  0  0
   -0.9701   -5.0849   38.3828 N   0  0  0  0  0  0  0  0  0  0  0  0
   -0.1877   -5.8296   37.5781 N   0  0  0  0  0  0  0  0  0  0  0  0
   -0.2000   -5.6830   36.1403 C   0  0  0  0  0  0  0  0  0  0  0  0
   -0.5606   -7.0011   35.4697 C   0  0  0  0  0  0  0  0  0  0  0  0
   -1.1913   -6.8026   34.1603 N   0  0  0  0  0  0  0  0  0  0  0  0
   -0.2852   -7.0369   32.7756 S   0  0  0  0  0  0  0  0  0  0  0  0
   -0.9535   -7.9979   31.9380 O   0  0  0  0  0  0  0  0  0  0  0  0
    1.1037   -7.0723   33.1831 O   0  0  0  0  0  0  0  0  0  0  0  0
   -0.4342   -5.5402   31.9370 C   0  0  0  0  0  0  0  0  0  0  0  0
    0.4728   -4.8968   31.0808 C   0  0  0  0  0  0  0  0  0  0  0  0
    0.2460   -3.5548   31.3293 C   0  0  0  0  0  0  0  0  0  0  0  0
   -0.7395   -3.5253   32.2745 N   0  0  0  0  0  0  0  0  0  0  0  0
   -0.9167   -2.6246   33.3778 C   0  0  0  0  0  0  0  0  0  0  0  0
   -1.3675   -4.6912   32.3806 N   0  0  0  0  0  0  0  0  0  0  0  0
    0.4394   -6.8547   38.1729 N   0  0  0  0  0  0  0  0  0  0  0  0
    1.3681   -7.6865   40.6810 H   0  0  0  0  0  0  0  0  0  0  0  0
   -0.1999   -7.3566   41.4341 H   0  0  0  0  0  0  0  0  0  0  0  0
   -0.0506   -8.6621   40.2482 H   0  0  0  0  0  0  0  0  0  0  0  0
   -0.9247   -4.8981   35.9003 H   0  0  0  0  0  0  0  0  0  0  0  0
    0.7915   -5.3361   35.8321 H   0  0  0  0  0  0  0  0  0  0  0  0
   -1.3081   -7.5351   36.0692 H   0  0  0  0  0  0  0  0  0  0  0  0
    0.2968   -7.6806   35.4217 H   0  0  0  0  0  0  0  0  0  0  0  0
   -1.7566   -5.9465   34.0547 H   0  0  0  0  0  0  0  0  0  0  0  0
    1.3002   -5.2997   30.5234 H   0  0  0  0  0  0  0  0  0  0  0  0
    0.7791   -2.6643   31.0233 H   0  0  0  0  0  0  0  0  0  0  0  0
   -1.9778   -2.3761   33.4624 H   0  0  0  0  0  0  0  0  0  0  0  0
   -0.5559   -3.1003   34.2925 H   0  0  0  0  0  0  0  0  0  0  0  0
   -0.3450   -1.7127   33.1871 H   0  0  0  0  0  0  0  0  0  0  0  0
  1  2  1  0
  2  3  1  0
  3  4  2  0
  4  5  1  0
  5  6  1  0
  6  7  1  0
  7  8  1  0
  8  9  1  0
  9 10  2  0
  9 11  2  0
  9 12  1  0
 12 13  1  0
 13 14  2  0
 14 15  1  0
 15 16  1  0
 15 17  1  0
  5 18  1  0
 18  2  2  0
 17 12  2  0
  1 19  1  0
  1 20  1  0
  1 21  1  0
  6 22  1  0
  6 23  1  0
  7 24  1  0
  7 25  1  0
  8 26  1  0
 13 27  1  0
 14 28  1  0
 16 29  1  0
 16 30  1  0
 16 31  1  0
M  END
>  <Energy>  (518) 
61.647401049721225

>  <compound_id>  (518) 
1825

>  <target_id>  (518) 
1

>  <reference_id>  (518) 
25

>  <inspiration_ids>  (518) 
[25, 150]

>  <energy_score>  (518) 
-35.93440022351945

>  <distance_score>  (518) 
2.2894779272632775

>  <path>  (518) 
/opt/xchem-fragalysis-2/maxwin/BulkDock/SCRATCH/505732/C1825-P25/C1825-P25.minimised.mol

>  <scratch_subdir>  (518) 
/opt/xchem-fragalysis-2/maxwin/BulkDock/SCRATCH/505732/C1825-P25

>  <fragmenstein_runtime>  (518) 
2.0027198791503906

>  <fragmenstein_outcome>  (518) 
too moved

>  <fragmenstein_mode>  (518) 
expansion

>  <fragmenstein_error>  (518) 


$$$$
C1825-P150
     RDKit          3D

 31 32  0  0  0  0  0  0  0  0999 V2000
    0.4670   -7.2387   40.3897 C   0  0  0  0  0  0  0  0  0  0  0  0
    0.0485   -6.6545   39.1118 C   0  0  0  0  0  0  0  0  0  0  0  0
   -0.8675   -5.6483   39.0139 N   0  0  0  0  0  0  0  0  0  0  0  0
   -1.0834   -5.4775   37.7176 N   0  0  0  0  0  0  0  0  0  0  0  0
   -0.3080   -6.4000   37.1053 N   0  0  0  0  0  0  0  0  0  0  0  0
   -0.5397   -6.8340   35.7415 C   0  0  0  0  0  0  0  0  0  0  0  0
    0.6389   -6.5422   34.8193 C   0  0  0  0  0  0  0  0  0  0  0  0
    0.6942   -7.3542   33.5602 N   0  0  0  0  0  0  0  0  0  0  0  0
   -0.6831   -7.4274   32.5472 S   0  0  0  0  0  0  0  0  0  0  0  0
   -0.4494   -8.2863   31.4200 O   0  0  0  0  0  0  0  0  0  0  0  0
   -1.8486   -7.5448   33.3834 O   0  0  0  0  0  0  0  0  0  0  0  0
   -0.6936   -5.8516   31.8330 C   0  0  0  0  0  0  0  0  0  0  0  0
    0.3634   -5.2815   31.0877 C   0  0  0  0  0  0  0  0  0  0  0  0
    0.3454   -3.9532   31.4745 C   0  0  0  0  0  0  0  0  0  0  0  0
   -0.6859   -3.8527   32.3693 N   0  0  0  0  0  0  0  0  0  0  0  0
   -0.7978   -3.0260   33.5407 C   0  0  0  0  0  0  0  0  0  0  0  0
   -1.4921   -4.9076   32.3205 N   0  0  0  0  0  0  0  0  0  0  0  0
    0.4814   -7.1089   37.9286 N   0  0  0  0  0  0  0  0  0  0  0  0
    0.0745   -8.2551   40.4941 H   0  0  0  0  0  0  0  0  0  0  0  0
    1.5583   -7.2811   40.4603 H   0  0  0  0  0  0  0  0  0  0  0  0
    0.0977   -6.6451   41.2317 H   0  0  0  0  0  0  0  0  0  0  0  0
   -0.7584   -7.9063   35.7885 H   0  0  0  0  0  0  0  0  0  0  0  0
   -1.4347   -6.3120   35.3998 H   0  0  0  0  0  0  0  0  0  0  0  0
    1.5787   -6.7596   35.3432 H   0  0  0  0  0  0  0  0  0  0  0  0
    0.6865   -5.4796   34.5650 H   0  0  0  0  0  0  0  0  0  0  0  0
    1.4934   -7.1108   32.9756 H   0  0  0  0  0  0  0  0  0  0  0  0
    1.1445   -5.7785   30.5317 H   0  0  0  0  0  0  0  0  0  0  0  0
    1.0289   -3.1345   31.2932 H   0  0  0  0  0  0  0  0  0  0  0  0
   -0.7786   -3.6506   34.4366 H   0  0  0  0  0  0  0  0  0  0  0  0
   -1.7386   -2.4729   33.4804 H   0  0  0  0  0  0  0  0  0  0  0  0
    0.0396   -2.3240   33.5631 H   0  0  0  0  0  0  0  0  0  0  0  0
  1  2  1  0
  2  3  1  0
  3  4  2  0
  4  5  1  0
  5  6  1  0
  6  7  1  0
  7  8  1  0
  8  9  1  0
  9 10  2  0
  9 11  2  0
  9 12  1  0
 12 13  1  0
 13 14  2  0
 14 15  1  0
 15 16  1  0
 15 17  1  0
  5 18  1  0
 18  2  2  0
 17 12  2  0
  1 19  1  0
  1 20  1  0
  1 21  1  0
  6 22  1  0
  6 23  1  0
  7 24  1  0
  7 25  1  0
  8 26  1  0
 13 27  1  0
 14 28  1  0
 16 29  1  0
 16 30  1  0
 16 31  1  0
M  END
>  <Energy>  (519) 
64.589330231658366

>  <compound_id>  (519) 
1825

>  <target_id>  (519) 
1

>  <reference_id>  (519) 
150

>  <inspiration_ids>  (519) 
[25, 150]

>  <energy_score>  (519) 
-32.99247104158229

>  <distance_score>  (519) 
2.094810852813332

>  <path>  (519) 
/opt/xchem-fragalysis-2/maxwin/BulkDock/SCRATCH/505732/C1825-P150/C1825-P150.minimised.mol

>  <scratch_subdir>  (519) 
/opt/xchem-fragalysis-2/maxwin/BulkDock/SCRATCH/505732/C1825-P150

>  <fragmenstein_runtime>  (519) 
2.064762830734253

>  <fragmenstein_outcome>  (519) 
too moved

>  <fragmenstein_mode>  (519) 
expansion

>  <fragmenstein_error>  (519) 


$$$$
C1826-P25
     RDKit          3D

 27 28  0  0  0  0  0  0  0  0999 V2000
    4.0796   -7.4658   38.1549 C   0  0  0  0  0  0  0  0  0  0  0  0
    2.6483   -7.4433   38.4666 C   0  0  0  0  0  0  0  0  0  0  0  0
    2.0243   -8.3734   39.1518 N   0  0  0  0  0  0  0  0  0  0  0  0
    0.7307   -7.9581   39.2688 N   0  0  0  0  0  0  0  0  0  0  0  0
    0.5513   -6.7860   38.6859 N   0  0  0  0  0  0  0  0  0  0  0  0
    1.7276   -6.4744   38.1299 N   0  0  0  0  0  0  0  0  0  0  0  0
    1.8586   -5.2306   37.3989 C   0  0  0  0  0  0  0  0  0  0  0  0
    0.5877   -4.7593   36.6762 C   0  0  0  0  0  0  0  0  0  0  0  0
    0.4568   -5.2978   35.3246 N   0  0  0  0  0  0  0  0  0  0  0  0
    0.1964   -6.9352   35.1054 S   0  0  0  0  0  0  0  0  0  0  0  0
   -0.9058   -7.3842   35.9172 O   0  0  0  0  0  0  0  0  0  0  0  0
    1.4926   -7.5826   35.0564 O   0  0  0  0  0  0  0  0  0  0  0  0
   -0.3661   -7.0317   33.4663 C   0  0  0  0  0  0  0  0  0  0  0  0
   -1.3052   -7.9299   33.0199 C   0  0  0  0  0  0  0  0  0  0  0  0
   -1.4016   -7.8260   31.3250 S   0  0  0  0  0  0  0  0  0  0  0  0
   -0.3935   -6.4449   31.3492 C   0  0  0  0  0  0  0  0  0  0  0  0
    0.1530   -6.1609   32.5057 N   0  0  0  0  0  0  0  0  0  0  0  0
    4.5683   -6.5517   38.5058 H   0  0  0  0  0  0  0  0  0  0  0  0
    4.2373   -7.5481   37.0751 H   0  0  0  0  0  0  0  0  0  0  0  0
    4.5741   -8.3167   38.6337 H   0  0  0  0  0  0  0  0  0  0  0  0
    2.6947   -5.3394   36.6998 H   0  0  0  0  0  0  0  0  0  0  0  0
    2.1401   -4.4865   38.1535 H   0  0  0  0  0  0  0  0  0  0  0  0
    0.6567   -3.6704   36.5597 H   0  0  0  0  0  0  0  0  0  0  0  0
   -0.3303   -4.9422   37.2436 H   0  0  0  0  0  0  0  0  0  0  0  0
    1.0266   -4.8855   34.5850 H   0  0  0  0  0  0  0  0  0  0  0  0
   -1.8628   -8.6519   33.5953 H   0  0  0  0  0  0  0  0  0  0  0  0
   -0.1750   -5.8758   30.4528 H   0  0  0  0  0  0  0  0  0  0  0  0
  1  2  1  0
  2  3  2  0
  3  4  1  0
  4  5  2  0
  5  6  1  0
  6  7  1  0
  7  8  1  0
  8  9  1  0
  9 10  1  0
 10 11  2  0
 10 12  2  0
 10 13  1  0
 13 14  2  0
 14 15  1  0
 15 16  1  0
 16 17  2  0
  6  2  1  0
 17 13  1  0
  1 18  1  0
  1 19  1  0
  1 20  1  0
  7 21  1  0
  7 22  1  0
  8 23  1  0
  8 24  1  0
  9 25  1  0
 14 26  1  0
 16 27  1  0
M  END
>  <Energy>  (520) 
2.9467185493342622

>  <compound_id>  (520) 
1826

>  <target_id>  (520) 
1

>  <reference_id>  (520) 
25

>  <inspiration_ids>  (520) 
[25, 152]

>  <energy_score>  (520) 
-58.07718322619297

>  <distance_score>  (520) 
1.7359287410958022

>  <path>  (520) 
/opt/xchem-fragalysis-2/maxwin/BulkDock/SCRATCH/505732/C1826-P25/C1826-P25.minimised.mol

>  <scratch_subdir>  (520) 
/opt/xchem-fragalysis-2/maxwin/BulkDock/SCRATCH/505732/C1826-P25

>  <fragmenstein_runtime>  (520) 
4.093178749084473

>  <fragmenstein_outcome>  (520) 
too moved

>  <fragmenstein_mode>  (520) 
expansion

>  <fragmenstein_error>  (520) 


$$$$
C1826-P152
     RDKit          3D

 27 28  0  0  0  0  0  0  0  0999 V2000
    1.8994   -8.3762   39.3382 C   0  0  0  0  0  0  0  0  0  0  0  0
    2.5723   -7.3817   38.4739 C   0  0  0  0  0  0  0  0  0  0  0  0
    3.8391   -7.4093   38.1156 N   0  0  0  0  0  0  0  0  0  0  0  0
    4.0440   -6.3077   37.3357 N   0  0  0  0  0  0  0  0  0  0  0  0
    2.9389   -5.5931   37.2119 N   0  0  0  0  0  0  0  0  0  0  0  0
    2.0017   -6.2618   37.9030 N   0  0  0  0  0  0  0  0  0  0  0  0
    0.6353   -5.7896   37.8971 C   0  0  0  0  0  0  0  0  0  0  0  0
    0.2118   -4.9440   36.6843 C   0  0  0  0  0  0  0  0  0  0  0  0
    0.6284   -5.4803   35.3741 N   0  0  0  0  0  0  0  0  0  0  0  0
    0.2163   -7.0539   34.9872 S   0  0  0  0  0  0  0  0  0  0  0  0
   -0.9324   -7.4579   35.7639 O   0  0  0  0  0  0  0  0  0  0  0  0
    1.4422   -7.8241   34.9497 O   0  0  0  0  0  0  0  0  0  0  0  0
   -0.2987   -7.0557   33.3276 C   0  0  0  0  0  0  0  0  0  0  0  0
   -1.2861   -7.8766   32.8303 C   0  0  0  0  0  0  0  0  0  0  0  0
   -1.2713   -7.7877   31.1282 S   0  0  0  0  0  0  0  0  0  0  0  0
   -0.1012   -6.5498   31.1901 C   0  0  0  0  0  0  0  0  0  0  0  0
    0.3679   -6.2730   32.3824 N   0  0  0  0  0  0  0  0  0  0  0  0
    0.9698   -8.7229   38.8786 H   0  0  0  0  0  0  0  0  0  0  0  0
    1.6617   -7.9356   40.3109 H   0  0  0  0  0  0  0  0  0  0  0  0
    2.5436   -9.2449   39.5039 H   0  0  0  0  0  0  0  0  0  0  0  0
    0.5049   -5.2036   38.8140 H   0  0  0  0  0  0  0  0  0  0  0  0
   -0.0066   -6.6709   37.9878 H   0  0  0  0  0  0  0  0  0  0  0  0
    0.6561   -3.9451   36.7750 H   0  0  0  0  0  0  0  0  0  0  0  0
   -0.8747   -4.8020   36.6892 H   0  0  0  0  0  0  0  0  0  0  0  0
    1.6301   -5.3379   35.1942 H   0  0  0  0  0  0  0  0  0  0  0  0
   -1.9356   -8.5499   33.3688 H   0  0  0  0  0  0  0  0  0  0  0  0
    0.2519   -6.0459   30.2989 H   0  0  0  0  0  0  0  0  0  0  0  0
  1  2  1  0
  2  3  2  0
  3  4  1  0
  4  5  2  0
  5  6  1  0
  6  7  1  0
  7  8  1  0
  8  9  1  0
  9 10  1  0
 10 11  2  0
 10 12  2  0
 10 13  1  0
 13 14  2  0
 14 15  1  0
 15 16  1  0
 16 17  2  0
  6  2  1  0
 17 13  1  0
  1 18  1  0
  1 19  1  0
  1 20  1  0
  7 21  1  0
  7 22  1  0
  8 23  1  0
  8 24  1  0
  9 25  1  0
 14 26  1  0
 16 27  1  0
M  END
>  <Energy>  (521) 
1.3191449890447517

>  <compound_id>  (521) 
1826

>  <target_id>  (521) 
1

>  <reference_id>  (521) 
152

>  <inspiration_ids>  (521) 
[25, 152]

>  <energy_score>  (521) 
-59.7047567864828

>  <distance_score>  (521) 
1.31323800910026

>  <path>  (521) 
/opt/xchem-fragalysis-2/maxwin/BulkDock/SCRATCH/505732/C1826-P152/C1826-P152.minimised.mol

>  <scratch_subdir>  (521) 
/opt/xchem-fragalysis-2/maxwin/BulkDock/SCRATCH/505732/C1826-P152

>  <fragmenstein_runtime>  (521) 
4.042440891265869

>  <fragmenstein_outcome>  (521) 
too moved

>  <fragmenstein_mode>  (521) 
expansion

>  <fragmenstein_error>  (521) 


$$$$
C1826-P25
     RDKit          3D

 27 28  0  0  0  0  0  0  0  0999 V2000
    0.2966   -7.5590   39.6182 C   0  0  0  0  0  0  0  0  0  0  0  0
    1.2079   -6.5176   39.1167 C   0  0  0  0  0  0  0  0  0  0  0  0
    2.4984   -6.4765   39.3632 N   0  0  0  0  0  0  0  0  0  0  0  0
    2.9847   -5.3811   38.7101 N   0  0  0  0  0  0  0  0  0  0  0  0
    2.0180   -4.7248   38.0921 N   0  0  0  0  0  0  0  0  0  0  0  0
    0.9043   -5.4442   38.3073 N   0  0  0  0  0  0  0  0  0  0  0  0
   -0.3413   -5.0273   37.7002 C   0  0  0  0  0  0  0  0  0  0  0  0
   -0.2167   -4.5760   36.2352 C   0  0  0  0  0  0  0  0  0  0  0  0
    0.6306   -5.4664   35.4286 N   0  0  0  0  0  0  0  0  0  0  0  0
    0.1195   -7.0255   35.1164 S   0  0  0  0  0  0  0  0  0  0  0  0
   -1.0350   -7.3447   35.9241 O   0  0  0  0  0  0  0  0  0  0  0  0
    1.2923   -7.8655   35.0146 O   0  0  0  0  0  0  0  0  0  0  0  0
   -0.4578   -6.9922   33.4797 C   0  0  0  0  0  0  0  0  0  0  0  0
   -1.3253   -7.9192   32.9540 C   0  0  0  0  0  0  0  0  0  0  0  0
   -1.3412   -7.7580   31.2600 S   0  0  0  0  0  0  0  0  0  0  0  0
   -0.3930   -6.3374   31.3843 C   0  0  0  0  0  0  0  0  0  0  0  0
    0.0450   -6.0478   32.5854 N   0  0  0  0  0  0  0  0  0  0  0  0
    0.0415   -8.2552   38.8147 H   0  0  0  0  0  0  0  0  0  0  0  0
   -0.6222   -7.1156   40.0116 H   0  0  0  0  0  0  0  0  0  0  0  0
    0.7650   -8.1308   40.4254 H   0  0  0  0  0  0  0  0  0  0  0  0
   -1.0484   -5.8520   37.8043 H   0  0  0  0  0  0  0  0  0  0  0  0
   -0.7275   -4.2016   38.3090 H   0  0  0  0  0  0  0  0  0  0  0  0
    0.2476   -3.5823   36.2071 H   0  0  0  0  0  0  0  0  0  0  0  0
   -1.2009   -4.4631   35.7767 H   0  0  0  0  0  0  0  0  0  0  0  0
    1.0198   -5.0318   34.5872 H   0  0  0  0  0  0  0  0  0  0  0  0
   -1.8507   -8.7076   33.4677 H   0  0  0  0  0  0  0  0  0  0  0  0
   -0.1377   -5.7403   30.5157 H   0  0  0  0  0  0  0  0  0  0  0  0
  1  2  1  0
  2  3  2  0
  3  4  1  0
  4  5  2  0
  5  6  1  0
  6  7  1  0
  7  8  1  0
  8  9  1  0
  9 10  1  0
 10 11  2  0
 10 12  2  0
 10 13  1  0
 13 14  2  0
 14 15  1  0
 15 16  1  0
 16 17  2  0
  6  2  1  0
 17 13  1  0
  1 18  1  0
  1 19  1  0
  1 20  1  0
  7 21  1  0
  7 22  1  0
  8 23  1  0
  8 24  1  0
  9 25  1  0
 14 26  1  0
 16 27  1  0
M  END
>  <Energy>  (522) 
1.1474425290453172

>  <compound_id>  (522) 
1826

>  <target_id>  (522) 
1

>  <reference_id>  (522) 
25

>  <inspiration_ids>  (522) 
[25, 153]

>  <energy_score>  (522) 
-59.876459246481616

>  <distance_score>  (522) 
1.3400879022117202

>  <path>  (522) 
/opt/xchem-fragalysis-2/maxwin/BulkDock/SCRATCH/505732/C1826-P25/C1826-P25.minimised.mol

>  <scratch_subdir>  (522) 
/opt/xchem-fragalysis-2/maxwin/BulkDock/SCRATCH/505732/C1826-P25

>  <fragmenstein_runtime>  (522) 
4.2497148513793945

>  <fragmenstein_outcome>  (522) 
too moved

>  <fragmenstein_mode>  (522) 
expansion

>  <fragmenstein_error>  (522) 


$$$$
C1826-P153
     RDKit          3D

 27 28  0  0  0  0  0  0  0  0999 V2000
    0.4154   -7.7037   39.4059 C   0  0  0  0  0  0  0  0  0  0  0  0
    1.2382   -6.5522   38.9983 C   0  0  0  0  0  0  0  0  0  0  0  0
    2.5008   -6.3843   39.3235 N   0  0  0  0  0  0  0  0  0  0  0  0
    2.9080   -5.2307   38.7178 N   0  0  0  0  0  0  0  0  0  0  0  0
    1.9149   -4.6602   38.0574 N   0  0  0  0  0  0  0  0  0  0  0  0
    0.8671   -5.4862   38.2065 N   0  0  0  0  0  0  0  0  0  0  0  0
   -0.4030   -5.1420   37.6065 C   0  0  0  0  0  0  0  0  0  0  0  0
   -0.3183   -4.6114   36.1648 C   0  0  0  0  0  0  0  0  0  0  0  0
    0.5307   -5.4343   35.2913 N   0  0  0  0  0  0  0  0  0  0  0  0
    0.0767   -7.0116   34.9621 S   0  0  0  0  0  0  0  0  0  0  0  0
   -1.1486   -7.3135   35.6645 O   0  0  0  0  0  0  0  0  0  0  0  0
    1.2732   -7.8229   34.9989 O   0  0  0  0  0  0  0  0  0  0  0  0
   -0.3489   -7.0215   33.2730 C   0  0  0  0  0  0  0  0  0  0  0  0
   -1.2104   -7.9256   32.6948 C   0  0  0  0  0  0  0  0  0  0  0  0
   -1.1350   -7.7543   30.9980 S   0  0  0  0  0  0  0  0  0  0  0  0
   -0.1058   -6.4036   31.1715 C   0  0  0  0  0  0  0  0  0  0  0  0
    0.2496   -6.1088   32.4001 N   0  0  0  0  0  0  0  0  0  0  0  0
    0.1338   -8.2906   38.5280 H   0  0  0  0  0  0  0  0  0  0  0  0
   -0.4903   -7.3689   39.9188 H   0  0  0  0  0  0  0  0  0  0  0  0
    0.9676   -8.3580   40.0873 H   0  0  0  0  0  0  0  0  0  0  0  0
   -1.0410   -6.0243   37.6722 H   0  0  0  0  0  0  0  0  0  0  0  0
   -0.8552   -4.3782   38.2500 H   0  0  0  0  0  0  0  0  0  0  0  0
    0.1159   -3.6041   36.1780 H   0  0  0  0  0  0  0  0  0  0  0  0
   -1.3172   -4.5075   35.7300 H   0  0  0  0  0  0  0  0  0  0  0  0
    0.8800   -4.9631   34.4524 H   0  0  0  0  0  0  0  0  0  0  0  0
   -1.8005   -8.6904   33.1771 H   0  0  0  0  0  0  0  0  0  0  0  0
    0.2388   -5.8343   30.3166 H   0  0  0  0  0  0  0  0  0  0  0  0
  1  2  1  0
  2  3  2  0
  3  4  1  0
  4  5  2  0
  5  6  1  0
  6  7  1  0
  7  8  1  0
  8  9  1  0
  9 10  1  0
 10 11  2  0
 10 12  2  0
 10 13  1  0
 13 14  2  0
 14 15  1  0
 15 16  1  0
 16 17  2  0
  6  2  1  0
 17 13  1  0
  1 18  1  0
  1 19  1  0
  1 20  1  0
  7 21  1  0
  7 22  1  0
  8 23  1  0
  8 24  1  0
  9 25  1  0
 14 26  1  0
 16 27  1  0
M  END
>  <Energy>  (523) 
0.6501946916439274

>  <compound_id>  (523) 
1826

>  <target_id>  (523) 
1

>  <reference_id>  (523) 
153

>  <inspiration_ids>  (523) 
[25, 153]

>  <energy_score>  (523) 
-60.37370708388318

>  <distance_score>  (523) 
1.3199655222263935

>  <path>  (523) 
/opt/xchem-fragalysis-2/maxwin/BulkDock/SCRATCH/505732/C1826-P153/C1826-P153.minimised.mol

>  <scratch_subdir>  (523) 
/opt/xchem-fragalysis-2/maxwin/BulkDock/SCRATCH/505732/C1826-P153

>  <fragmenstein_runtime>  (523) 
3.8793869018554688

>  <fragmenstein_outcome>  (523) 
too moved

>  <fragmenstein_mode>  (523) 
expansion

>  <fragmenstein_error>  (523) 


$$$$
C1828-P25
     RDKit          3D

 41 42  0  0  0  0  0  0  0  0999 V2000
    1.2663   -8.0648   39.9562 C   0  0  0  0  0  0  0  0  0  0  0  0
    1.1454   -8.5695   38.5321 C   0  0  0  0  0  0  0  0  0  0  0  0
    1.8250   -7.7180   37.5963 O   0  0  0  0  0  0  0  0  0  0  0  0
    1.1498   -6.5928   37.2473 C   0  0  0  0  0  0  0  0  0  0  0  0
    0.1375   -6.1607   37.7700 O   0  0  0  0  0  0  0  0  0  0  0  0
    1.8072   -6.0340   36.0436 C   0  0  0  0  0  0  0  0  0  0  0  0
    1.1406   -5.1435   35.2905 C   0  0  0  0  0  0  0  0  0  0  0  0
    1.5257   -4.7709   33.8685 C   0  0  0  0  0  0  0  0  0  0  0  0
    0.8242   -3.4764   33.4178 C   0  0  0  0  0  0  0  0  0  0  0  0
    0.4472   -3.5101   31.9408 C   0  0  0  0  0  0  0  0  0  0  0  0
   -0.4776   -4.6854   31.5909 C   0  0  0  0  0  0  0  0  0  0  0  0
   -0.2546   -5.9585   32.4312 C   0  0  0  0  0  0  0  0  0  0  0  0
    1.2280   -5.9213   32.8664 C   0  0  0  0  0  0  0  0  0  0  0  0
   -0.7559   -7.1448   31.7046 N   0  0  0  0  0  0  0  0  0  0  0  0
   -1.5156   -7.9253   32.6850 N   0  0  0  0  0  0  0  0  0  0  0  0
   -1.0179   -7.4550   33.9503 C   0  0  0  0  0  0  0  0  0  0  0  0
   -1.7986   -7.7857   35.1858 C   0  0  0  0  0  0  0  0  0  0  0  0
   -0.9737   -6.0396   33.6813 N   0  0  0  0  0  0  0  0  0  0  0  0
    0.7806   -7.0930   40.0829 H   0  0  0  0  0  0  0  0  0  0  0  0
    0.8096   -8.7710   40.6556 H   0  0  0  0  0  0  0  0  0  0  0  0
    2.3189   -7.9315   40.2265 H   0  0  0  0  0  0  0  0  0  0  0  0
    0.0974   -8.6916   38.2395 H   0  0  0  0  0  0  0  0  0  0  0  0
    1.6127   -9.5569   38.4552 H   0  0  0  0  0  0  0  0  0  0  0  0
    2.7385   -6.4832   35.7264 H   0  0  0  0  0  0  0  0  0  0  0  0
    0.1791   -4.7726   35.6525 H   0  0  0  0  0  0  0  0  0  0  0  0
    2.6101   -4.5946   33.8509 H   0  0  0  0  0  0  0  0  0  0  0  0
    1.4869   -2.6226   33.6066 H   0  0  0  0  0  0  0  0  0  0  0  0
   -0.0852   -3.2824   34.0009 H   0  0  0  0  0  0  0  0  0  0  0  0
    1.3606   -3.5675   31.3348 H   0  0  0  0  0  0  0  0  0  0  0  0
   -0.0402   -2.5690   31.6591 H   0  0  0  0  0  0  0  0  0  0  0  0
   -0.3234   -4.9042   30.5259 H   0  0  0  0  0  0  0  0  0  0  0  0
   -1.5042   -4.3293   31.6825 H   0  0  0  0  0  0  0  0  0  0  0  0
    1.8251   -5.7314   31.9771 H   0  0  0  0  0  0  0  0  0  0  0  0
    1.5800   -6.8639   33.2882 H   0  0  0  0  0  0  0  0  0  0  0  0
    0.0338   -7.6829   31.3697 H   0  0  0  0  0  0  0  0  0  0  0  0
   -1.4542   -8.9379   32.5922 H   0  0  0  0  0  0  0  0  0  0  0  0
   -0.0108   -7.8359   34.1385 H   0  0  0  0  0  0  0  0  0  0  0  0
   -1.8748   -6.9081   35.8335 H   0  0  0  0  0  0  0  0  0  0  0  0
   -2.7940   -8.1719   34.9606 H   0  0  0  0  0  0  0  0  0  0  0  0
   -1.2825   -8.5479   35.7782 H   0  0  0  0  0  0  0  0  0  0  0  0
   -1.9227   -5.7133   33.5519 H   0  0  0  0  0  0  0  0  0  0  0  0
  1  2  1  0
  2  3  1  0
  3  4  1  0
  4  5  2  0
  4  6  1  0
  6  7  2  3
  7  8  1  0
  8  9  1  0
  9 10  1  0
 10 11  1  0
 11 12  1  0
 12 13  1  0
 12 14  1  0
 14 15  1  0
 15 16  1  0
 16 17  1  0
 16 18  1  0
 13  8  1  0
 18 12  1  0
  1 19  1  0
  1 20  1  0
  1 21  1  0
  2 22  1  0
  2 23  1  0
  6 24  1  0
  7 25  1  0
  8 26  1  0
  9 27  1  0
  9 28  1  0
 10 29  1  0
 10 30  1  0
 11 31  1  0
 11 32  1  0
 13 33  1  0
 13 34  1  0
 14 35  1  0
 15 36  1  0
 16 37  1  0
 17 38  1  0
 17 39  1  0
 17 40  1  0
 18 41  1  0
M  END
>  <Energy>  (524) 
8.6419000027588684

>  <compound_id>  (524) 
1828

>  <target_id>  (524) 
1

>  <reference_id>  (524) 
25

>  <inspiration_ids>  (524) 
[25, 158]

>  <energy_score>  (524) 
-7.740872015205042

>  <distance_score>  (524) 
1.5691505687623433

>  <path>  (524) 
/opt/xchem-fragalysis-2/maxwin/BulkDock/SCRATCH/505732/C1828-P25/C1828-P25.minimised.mol

>  <scratch_subdir>  (524) 
/opt/xchem-fragalysis-2/maxwin/BulkDock/SCRATCH/505732/C1828-P25

>  <fragmenstein_runtime>  (524) 
2.818516969680786

>  <fragmenstein_outcome>  (524) 
too moved

>  <fragmenstein_mode>  (524) 
expansion

>  <fragmenstein_error>  (524) 


$$$$
C1828-P158
     RDKit          3D

 41 42  0  0  0  0  0  0  0  0999 V2000
    0.9699   -7.3874   40.1859 C   0  0  0  0  0  0  0  0  0  0  0  0
    1.1473   -7.9963   38.8133 C   0  0  0  0  0  0  0  0  0  0  0  0
    1.7881   -7.1019   37.8935 O   0  0  0  0  0  0  0  0  0  0  0  0
    0.9628   -6.1953   37.3123 C   0  0  0  0  0  0  0  0  0  0  0  0
   -0.1678   -5.9043   37.6612 O   0  0  0  0  0  0  0  0  0  0  0  0
    1.6511   -5.6905   36.1022 C   0  0  0  0  0  0  0  0  0  0  0  0
    0.9390   -5.0444   35.1655 C   0  0  0  0  0  0  0  0  0  0  0  0
    1.4387   -4.7639   33.7603 C   0  0  0  0  0  0  0  0  0  0  0  0
    0.7655   -3.5193   33.1605 C   0  0  0  0  0  0  0  0  0  0  0  0
    0.5153   -3.6736   31.6646 C   0  0  0  0  0  0  0  0  0  0  0  0
   -0.3921   -4.8698   31.3497 C   0  0  0  0  0  0  0  0  0  0  0  0
   -0.1851   -6.0913   32.2648 C   0  0  0  0  0  0  0  0  0  0  0  0
    1.2494   -5.9955   32.8360 C   0  0  0  0  0  0  0  0  0  0  0  0
   -0.5493   -7.3370   31.5594 N   0  0  0  0  0  0  0  0  0  0  0  0
   -1.4064   -8.0843   32.5096 N   0  0  0  0  0  0  0  0  0  0  0  0
   -1.0819   -7.5075   33.7972 C   0  0  0  0  0  0  0  0  0  0  0  0
   -1.9940   -7.7610   34.9669 C   0  0  0  0  0  0  0  0  0  0  0  0
   -1.0726   -6.1172   33.4097 N   0  0  0  0  0  0  0  0  0  0  0  0
    0.5507   -8.1191   40.8826 H   0  0  0  0  0  0  0  0  0  0  0  0
    1.9306   -7.0373   40.5774 H   0  0  0  0  0  0  0  0  0  0  0  0
    0.3048   -6.5193   40.1562 H   0  0  0  0  0  0  0  0  0  0  0  0
    0.1911   -8.3383   38.4050 H   0  0  0  0  0  0  0  0  0  0  0  0
    1.8033   -8.8662   38.9011 H   0  0  0  0  0  0  0  0  0  0  0  0
    2.6787   -5.9916   35.9482 H   0  0  0  0  0  0  0  0  0  0  0  0
   -0.1081   -4.8125   35.3734 H   0  0  0  0  0  0  0  0  0  0  0  0
    2.5189   -4.5699   33.8183 H   0  0  0  0  0  0  0  0  0  0  0  0
    1.4024   -2.6434   33.3364 H   0  0  0  0  0  0  0  0  0  0  0  0
   -0.1902   -3.2981   33.6529 H   0  0  0  0  0  0  0  0  0  0  0  0
    1.4738   -3.7879   31.1425 H   0  0  0  0  0  0  0  0  0  0  0  0
    0.0607   -2.7589   31.2662 H   0  0  0  0  0  0  0  0  0  0  0  0
   -0.2285   -5.1399   30.2984 H   0  0  0  0  0  0  0  0  0  0  0  0
   -1.4232   -4.5144   31.4259 H   0  0  0  0  0  0  0  0  0  0  0  0
    1.9413   -5.9047   31.9977 H   0  0  0  0  0  0  0  0  0  0  0  0
    1.5565   -6.8857   33.3850 H   0  0  0  0  0  0  0  0  0  0  0  0
    0.3062   -7.8482   31.3427 H   0  0  0  0  0  0  0  0  0  0  0  0
   -1.2660   -9.0942   32.5210 H   0  0  0  0  0  0  0  0  0  0  0  0
   -0.0908   -7.8227   34.1335 H   0  0  0  0  0  0  0  0  0  0  0  0
   -2.1279   -6.8516   35.5587 H   0  0  0  0  0  0  0  0  0  0  0  0
   -2.9676   -8.1532   34.6698 H   0  0  0  0  0  0  0  0  0  0  0  0
   -1.5469   -8.4814   35.6575 H   0  0  0  0  0  0  0  0  0  0  0  0
   -2.0131   -5.9457   33.0810 H   0  0  0  0  0  0  0  0  0  0  0  0
  1  2  1  0
  2  3  1  0
  3  4  1  0
  4  5  2  0
  4  6  1  0
  6  7  2  3
  7  8  1  0
  8  9  1  0
  9 10  1  0
 10 11  1  0
 11 12  1  0
 12 13  1  0
 12 14  1  0
 14 15  1  0
 15 16  1  0
 16 17  1  0
 16 18  1  0
 13  8  1  0
 18 12  1  0
  1 19  1  0
  1 20  1  0
  1 21  1  0
  2 22  1  0
  2 23  1  0
  6 24  1  0
  7 25  1  0
  8 26  1  0
  9 27  1  0
  9 28  1  0
 10 29  1  0
 10 30  1  0
 11 31  1  0
 11 32  1  0
 13 33  1  0
 13 34  1  0
 14 35  1  0
 15 36  1  0
 16 37  1  0
 17 38  1  0
 17 39  1  0
 17 40  1  0
 18 41  1  0
M  END
>  <Energy>  (525) 
4.7658960870494624

>  <compound_id>  (525) 
1828

>  <target_id>  (525) 
1

>  <reference_id>  (525) 
158

>  <inspiration_ids>  (525) 
[25, 158]

>  <energy_score>  (525) 
-11.616875930912919

>  <distance_score>  (525) 
1.4637937803437508

>  <path>  (525) 
/opt/xchem-fragalysis-2/maxwin/BulkDock/SCRATCH/505732/C1828-P158/C1828-P158.minimised.mol

>  <scratch_subdir>  (525) 
/opt/xchem-fragalysis-2/maxwin/BulkDock/SCRATCH/505732/C1828-P158

>  <fragmenstein_runtime>  (525) 
2.771049737930298

>  <fragmenstein_outcome>  (525) 
too moved

>  <fragmenstein_mode>  (525) 
expansion

>  <fragmenstein_error>  (525) 


$$$$
C1828-P25
     RDKit          3D

 41 42  0  0  0  0  0  0  0  0999 V2000
    1.9776   -8.5760   39.6372 C   0  0  0  0  0  0  0  0  0  0  0  0
    0.8149   -8.4631   38.6746 C   0  0  0  0  0  0  0  0  0  0  0  0
    1.2728   -7.9337   37.4219 O   0  0  0  0  0  0  0  0  0  0  0  0
    1.1635   -6.5901   37.2742 C   0  0  0  0  0  0  0  0  0  0  0  0
    0.7601   -5.7838   38.0917 O   0  0  0  0  0  0  0  0  0  0  0  0
    1.5679   -6.2794   35.8862 C   0  0  0  0  0  0  0  0  0  0  0  0
    1.1947   -5.1339   35.2921 C   0  0  0  0  0  0  0  0  0  0  0  0
    1.4594   -4.7870   33.8340 C   0  0  0  0  0  0  0  0  0  0  0  0
    0.7106   -3.5034   33.4248 C   0  0  0  0  0  0  0  0  0  0  0  0
    0.3674   -3.4935   31.9405 C   0  0  0  0  0  0  0  0  0  0  0  0
   -0.5208   -4.6780   31.5311 C   0  0  0  0  0  0  0  0  0  0  0  0
   -0.3239   -5.9562   32.3710 C   0  0  0  0  0  0  0  0  0  0  0  0
    1.1550   -5.9253   32.8273 C   0  0  0  0  0  0  0  0  0  0  0  0
   -0.7728   -7.1596   31.6254 N   0  0  0  0  0  0  0  0  0  0  0  0
   -1.4992   -7.9936   32.6056 N   0  0  0  0  0  0  0  0  0  0  0  0
   -1.0901   -7.4532   33.8761 C   0  0  0  0  0  0  0  0  0  0  0  0
   -1.8509   -7.8086   35.1177 C   0  0  0  0  0  0  0  0  0  0  0  0
   -1.1510   -6.0584   33.5431 N   0  0  0  0  0  0  0  0  0  0  0  0
    1.6586   -9.0243   40.5823 H   0  0  0  0  0  0  0  0  0  0  0  0
    2.7762   -9.1894   39.2071 H   0  0  0  0  0  0  0  0  0  0  0  0
    2.4089   -7.5912   39.8439 H   0  0  0  0  0  0  0  0  0  0  0  0
    0.0073   -7.8572   39.1004 H   0  0  0  0  0  0  0  0  0  0  0  0
    0.4024   -9.4568   38.4719 H   0  0  0  0  0  0  0  0  0  0  0  0
    2.1226   -7.0503   35.3691 H   0  0  0  0  0  0  0  0  0  0  0  0
    0.6550   -4.3945   35.8876 H   0  0  0  0  0  0  0  0  0  0  0  0
    2.5351   -4.5723   33.7615 H   0  0  0  0  0  0  0  0  0  0  0  0
    1.3338   -2.6317   33.6614 H   0  0  0  0  0  0  0  0  0  0  0  0
   -0.2157   -3.3715   33.9984 H   0  0  0  0  0  0  0  0  0  0  0  0
    1.2952   -3.5109   31.3542 H   0  0  0  0  0  0  0  0  0  0  0  0
   -0.1356   -2.5549   31.6793 H   0  0  0  0  0  0  0  0  0  0  0  0
   -0.3137   -4.8850   30.4727 H   0  0  0  0  0  0  0  0  0  0  0  0
   -1.5530   -4.3312   31.5769 H   0  0  0  0  0  0  0  0  0  0  0  0
    1.7575   -5.7296   31.9404 H   0  0  0  0  0  0  0  0  0  0  0  0
    1.5061   -6.8768   33.2212 H   0  0  0  0  0  0  0  0  0  0  0  0
    0.0273   -7.6640   31.2744 H   0  0  0  0  0  0  0  0  0  0  0  0
   -1.3709   -8.9985   32.5301 H   0  0  0  0  0  0  0  0  0  0  0  0
   -0.0674   -7.7682   34.0953 H   0  0  0  0  0  0  0  0  0  0  0  0
   -1.3192   -8.5726   35.6929 H   0  0  0  0  0  0  0  0  0  0  0  0
   -1.9121   -6.9415   35.7813 H   0  0  0  0  0  0  0  0  0  0  0  0
   -2.8482   -8.1976   34.9107 H   0  0  0  0  0  0  0  0  0  0  0  0
   -0.9586   -5.4290   34.3073 H   0  0  0  0  0  0  0  0  0  0  0  0
  1  2  1  0
  2  3  1  0
  3  4  1  0
  4  5  2  0
  4  6  1  0
  6  7  2  3
  7  8  1  0
  8  9  1  0
  9 10  1  0
 10 11  1  0
 11 12  1  0
 12 13  1  0
 12 14  1  0
 14 15  1  0
 15 16  1  0
 16 17  1  0
 16 18  1  0
 13  8  1  0
 18 12  1  0
  1 19  1  0
  1 20  1  0
  1 21  1  0
  2 22  1  0
  2 23  1  0
  6 24  1  0
  7 25  1  0
  8 26  1  0
  9 27  1  0
  9 28  1  0
 10 29  1  0
 10 30  1  0
 11 31  1  0
 11 32  1  0
 13 33  1  0
 13 34  1  0
 14 35  1  0
 15 36  1  0
 16 37  1  0
 17 38  1  0
 17 39  1  0
 17 40  1  0
 18 41  1  0
M  END
>  <Energy>  (526) 
14.981879980275181

>  <compound_id>  (526) 
1828

>  <target_id>  (526) 
1

>  <reference_id>  (526) 
25

>  <inspiration_ids>  (526) 
[25, 159]

>  <energy_score>  (526) 
-1.4008920376889193

>  <distance_score>  (526) 
1.3685779342579825

>  <path>  (526) 
/opt/xchem-fragalysis-2/maxwin/BulkDock/SCRATCH/505732/C1828-P25/C1828-P25.minimised.mol

>  <scratch_subdir>  (526) 
/opt/xchem-fragalysis-2/maxwin/BulkDock/SCRATCH/505732/C1828-P25

>  <fragmenstein_runtime>  (526) 
2.794901132583618

>  <fragmenstein_outcome>  (526) 
too moved

>  <fragmenstein_mode>  (526) 
expansion

>  <fragmenstein_error>  (526) 


$$$$
C1828-P159
     RDKit          3D

 41 42  0  0  0  0  0  0  0  0999 V2000
    1.9212   -7.8194   39.8838 C   0  0  0  0  0  0  0  0  0  0  0  0
    1.7975   -8.4342   38.5092 C   0  0  0  0  0  0  0  0  0  0  0  0
    2.2857   -7.5533   37.4832 O   0  0  0  0  0  0  0  0  0  0  0  0
    1.3962   -6.6279   37.0454 C   0  0  0  0  0  0  0  0  0  0  0  0
    0.2925   -6.3973   37.5086 O   0  0  0  0  0  0  0  0  0  0  0  0
    1.9594   -6.0034   35.8242 C   0  0  0  0  0  0  0  0  0  0  0  0
    1.1782   -5.2102   35.0727 C   0  0  0  0  0  0  0  0  0  0  0  0
    1.5231   -4.7337   33.6671 C   0  0  0  0  0  0  0  0  0  0  0  0
    0.7517   -3.4511   33.3094 C   0  0  0  0  0  0  0  0  0  0  0  0
    0.3612   -3.4102   31.8349 C   0  0  0  0  0  0  0  0  0  0  0  0
   -0.5064   -4.6054   31.4087 C   0  0  0  0  0  0  0  0  0  0  0  0
   -0.2163   -5.9079   32.1764 C   0  0  0  0  0  0  0  0  0  0  0  0
    1.2666   -5.8357   32.6013 C   0  0  0  0  0  0  0  0  0  0  0  0
   -0.6297   -7.0888   31.3926 N   0  0  0  0  0  0  0  0  0  0  0  0
   -1.3340   -7.9987   32.3443 N   0  0  0  0  0  0  0  0  0  0  0  0
   -0.9647   -7.4796   33.6475 C   0  0  0  0  0  0  0  0  0  0  0  0
   -1.8348   -7.8048   34.8282 C   0  0  0  0  0  0  0  0  0  0  0  0
   -0.9452   -6.0636   33.4084 N   0  0  0  0  0  0  0  0  0  0  0  0
    1.6081   -8.5280   40.6559 H   0  0  0  0  0  0  0  0  0  0  0  0
    2.9559   -7.5190   40.0790 H   0  0  0  0  0  0  0  0  0  0  0  0
    1.3079   -6.9173   39.9714 H   0  0  0  0  0  0  0  0  0  0  0  0
    0.7648   -8.7345   38.3006 H   0  0  0  0  0  0  0  0  0  0  0  0
    2.4216   -9.3310   38.4702 H   0  0  0  0  0  0  0  0  0  0  0  0
    2.9512   -6.3071   35.5168 H   0  0  0  0  0  0  0  0  0  0  0  0
    0.1778   -4.9719   35.4397 H   0  0  0  0  0  0  0  0  0  0  0  0
    2.5977   -4.5057   33.6444 H   0  0  0  0  0  0  0  0  0  0  0  0
    1.3727   -2.5784   33.5472 H   0  0  0  0  0  0  0  0  0  0  0  0
   -0.1593   -3.3415   33.9117 H   0  0  0  0  0  0  0  0  0  0  0  0
    1.2719   -3.3848   31.2225 H   0  0  0  0  0  0  0  0  0  0  0  0
   -0.1736   -2.4782   31.6166 H   0  0  0  0  0  0  0  0  0  0  0  0
   -0.3481   -4.7545   30.3321 H   0  0  0  0  0  0  0  0  0  0  0  0
   -1.5519   -4.3096   31.5188 H   0  0  0  0  0  0  0  0  0  0  0  0
    1.8710   -5.6267   31.7119 H   0  0  0  0  0  0  0  0  0  0  0  0
    1.6277   -6.7747   33.0045 H   0  0  0  0  0  0  0  0  0  0  0  0
    0.2108   -7.5587   31.0484 H   0  0  0  0  0  0  0  0  0  0  0  0
   -2.3470   -7.8804   32.2482 H   0  0  0  0  0  0  0  0  0  0  0  0
    0.0372   -7.8284   33.9118 H   0  0  0  0  0  0  0  0  0  0  0  0
   -1.4074   -8.6209   35.4124 H   0  0  0  0  0  0  0  0  0  0  0  0
   -1.8708   -6.9493   35.5092 H   0  0  0  0  0  0  0  0  0  0  0  0
   -2.8504   -8.0852   34.5442 H   0  0  0  0  0  0  0  0  0  0  0  0
   -1.8738   -5.6715   33.4018 H   0  0  0  0  0  0  0  0  0  0  0  0
  1  2  1  0
  2  3  1  0
  3  4  1  0
  4  5  2  0
  4  6  1  0
  6  7  2  3
  7  8  1  0
  8  9  1  0
  9 10  1  0
 10 11  1  0
 11 12  1  0
 12 13  1  0
 12 14  1  0
 14 15  1  0
 15 16  1  0
 16 17  1  0
 16 18  1  0
 13  8  1  0
 18 12  1  0
  1 19  1  0
  1 20  1  0
  1 21  1  0
  2 22  1  0
  2 23  1  0
  6 24  1  0
  7 25  1  0
  8 26  1  0
  9 27  1  0
  9 28  1  0
 10 29  1  0
 10 30  1  0
 11 31  1  0
 11 32  1  0
 13 33  1  0
 13 34  1  0
 14 35  1  0
 15 36  1  0
 16 37  1  0
 17 38  1  0
 17 39  1  0
 17 40  1  0
 18 41  1  0
M  END
>  <Energy>  (527) 
2.3190171895179219

>  <compound_id>  (527) 
1828

>  <target_id>  (527) 
1

>  <reference_id>  (527) 
159

>  <inspiration_ids>  (527) 
[25, 159]

>  <energy_score>  (527) 
-14.063754828444768

>  <distance_score>  (527) 
1.504577161872461

>  <path>  (527) 
/opt/xchem-fragalysis-2/maxwin/BulkDock/SCRATCH/505732/C1828-P159/C1828-P159.minimised.mol

>  <scratch_subdir>  (527) 
/opt/xchem-fragalysis-2/maxwin/BulkDock/SCRATCH/505732/C1828-P159

>  <fragmenstein_runtime>  (527) 
2.5545334815979004

>  <fragmenstein_outcome>  (527) 
too moved

>  <fragmenstein_mode>  (527) 
expansion

>  <fragmenstein_error>  (527) 


$$$$
C1829-P25
     RDKit          3D

 34 35  0  0  0  0  0  0  0  0999 V2000
    0.2619   -1.1997   32.8568 C   0  0  0  0  0  0  0  0  0  0  0  0
   -0.6645   -1.9424   31.9996 C   0  0  0  0  0  0  0  0  0  0  0  0
   -1.9215   -2.1708   32.3246 N   0  0  0  0  0  0  0  0  0  0  0  0
   -2.4709   -2.8348   31.2831 N   0  0  0  0  0  0  0  0  0  0  0  0
   -1.5840   -3.0204   30.3235 N   0  0  0  0  0  0  0  0  0  0  0  0
   -0.4315   -2.5105   30.7775 N   0  0  0  0  0  0  0  0  0  0  0  0
    0.7119   -2.5969   29.9103 C   0  0  0  0  0  0  0  0  0  0  0  0
    2.0840   -2.7735   30.5327 C   0  0  0  0  0  0  0  0  0  0  0  0
    2.3467   -4.1000   31.1507 N   0  0  0  0  0  0  0  0  0  0  0  0
    1.9161   -4.4539   32.7471 S   0  0  0  0  0  0  0  0  0  0  0  0
    2.1390   -3.2649   33.5198 O   0  0  0  0  0  0  0  0  0  0  0  0
    2.5632   -5.6747   33.1456 O   0  0  0  0  0  0  0  0  0  0  0  0
    0.3004   -4.7840   32.6780 N   0  0  0  0  0  0  0  0  0  0  0  0
   -0.2564   -5.7948   31.7549 C   0  0  0  0  0  0  0  0  0  0  0  0
   -0.4553   -7.1390   32.4270 C   0  0  0  0  0  0  0  0  0  0  0  0
   -1.2659   -7.0420   33.5953 O   0  0  0  0  0  0  0  0  0  0  0  0
   -0.6185   -6.1997   34.5548 C   0  0  0  0  0  0  0  0  0  0  0  0
   -0.4064   -4.7937   33.9945 C   0  0  0  0  0  0  0  0  0  0  0  0
   -0.1750   -0.2141   33.0621 H   0  0  0  0  0  0  0  0  0  0  0  0
    1.2365   -0.9956   32.4272 H   0  0  0  0  0  0  0  0  0  0  0  0
    0.3688   -1.6833   33.8301 H   0  0  0  0  0  0  0  0  0  0  0  0
    0.5337   -3.4265   29.2134 H   0  0  0  0  0  0  0  0  0  0  0  0
    0.7034   -1.6732   29.3188 H   0  0  0  0  0  0  0  0  0  0  0  0
    2.8094   -2.6969   29.7099 H   0  0  0  0  0  0  0  0  0  0  0  0
    2.3823   -1.9763   31.2106 H   0  0  0  0  0  0  0  0  0  0  0  0
    3.3536   -4.2815   31.1102 H   0  0  0  0  0  0  0  0  0  0  0  0
    0.3441   -5.8734   30.8476 H   0  0  0  0  0  0  0  0  0  0  0  0
   -1.2259   -5.4100   31.4634 H   0  0  0  0  0  0  0  0  0  0  0  0
    0.5013   -7.5256   32.7566 H   0  0  0  0  0  0  0  0  0  0  0  0
   -0.9275   -7.8479   31.7416 H   0  0  0  0  0  0  0  0  0  0  0  0
    0.3343   -6.6548   34.8507 H   0  0  0  0  0  0  0  0  0  0  0  0
   -1.2488   -6.1596   35.4484 H   0  0  0  0  0  0  0  0  0  0  0  0
   -1.3474   -4.2884   33.8051 H   0  0  0  0  0  0  0  0  0  0  0  0
    0.1155   -4.1813   34.7368 H   0  0  0  0  0  0  0  0  0  0  0  0
  1  2  1  0
  2  3  2  0
  3  4  1  0
  4  5  2  0
  5  6  1  0
  6  7  1  0
  7  8  1  0
  8  9  1  0
  9 10  1  0
 10 11  2  0
 10 12  2  0
 10 13  1  0
 13 14  1  0
 14 15  1  0
 15 16  1  0
 16 17  1  0
 17 18  1  0
  6  2  1  0
 18 13  1  0
  1 19  1  0
  1 20  1  0
  1 21  1  0
  7 22  1  0
  7 23  1  0
  8 24  1  0
  8 25  1  0
  9 26  1  0
 14 27  1  0
 14 28  1  0
 15 29  1  0
 15 30  1  0
 17 31  1  0
 17 32  1  0
 18 33  1  0
 18 34  1  0
M  END
>  <Energy>  (528) 
-125.3310479422741

>  <compound_id>  (528) 
1829

>  <target_id>  (528) 
1

>  <reference_id>  (528) 
25

>  <inspiration_ids>  (528) 
[25, 162]

>  <energy_score>  (528) 
-101.31413039742944

>  <distance_score>  (528) 
2.3147904022303654

>  <path>  (528) 
/opt/xchem-fragalysis-2/maxwin/BulkDock/SCRATCH/505732/C1829-P25/C1829-P25.minimised.mol

>  <scratch_subdir>  (528) 
/opt/xchem-fragalysis-2/maxwin/BulkDock/SCRATCH/505732/C1829-P25

>  <fragmenstein_runtime>  (528) 
2.4208972454071045

>  <fragmenstein_outcome>  (528) 
too moved

>  <fragmenstein_mode>  (528) 
expansion

>  <fragmenstein_error>  (528) 


$$$$
C1829-P162
     RDKit          3D

 34 35  0  0  0  0  0  0  0  0999 V2000
    0.5011   -1.9053   32.7846 C   0  0  0  0  0  0  0  0  0  0  0  0
   -0.6432   -2.2599   31.9252 C   0  0  0  0  0  0  0  0  0  0  0  0
   -1.8893   -2.3188   32.3556 N   0  0  0  0  0  0  0  0  0  0  0  0
   -2.6688   -2.5329   31.2647 N   0  0  0  0  0  0  0  0  0  0  0  0
   -1.9276   -2.6629   30.1813 N   0  0  0  0  0  0  0  0  0  0  0  0
   -0.6486   -2.5626   30.5865 N   0  0  0  0  0  0  0  0  0  0  0  0
    0.3543   -2.9034   29.6085 C   0  0  0  0  0  0  0  0  0  0  0  0
    1.8208   -2.7840   29.9639 C   0  0  0  0  0  0  0  0  0  0  0  0
    2.2359   -3.4530   31.2148 N   0  0  0  0  0  0  0  0  0  0  0  0
    1.9664   -5.0874   31.4915 S   0  0  0  0  0  0  0  0  0  0  0  0
    2.8064   -5.4063   32.6177 O   0  0  0  0  0  0  0  0  0  0  0  0
    2.1019   -5.7165   30.1987 O   0  0  0  0  0  0  0  0  0  0  0  0
    0.3803   -5.1761   31.9961 N   0  0  0  0  0  0  0  0  0  0  0  0
   -0.5030   -6.0564   31.2257 C   0  0  0  0  0  0  0  0  0  0  0  0
   -0.3758   -7.5146   31.6102 C   0  0  0  0  0  0  0  0  0  0  0  0
    0.1785   -7.6954   32.9161 O   0  0  0  0  0  0  0  0  0  0  0  0
   -0.3440   -6.7492   33.8468 C   0  0  0  0  0  0  0  0  0  0  0  0
    0.1049   -5.3301   33.4737 C   0  0  0  0  0  0  0  0  0  0  0  0
    0.9735   -2.7652   33.2550 H   0  0  0  0  0  0  0  0  0  0  0  0
    1.2421   -1.3012   32.2559 H   0  0  0  0  0  0  0  0  0  0  0  0
    0.1422   -1.2750   33.6078 H   0  0  0  0  0  0  0  0  0  0  0  0
    0.1367   -3.9249   29.2815 H   0  0  0  0  0  0  0  0  0  0  0  0
    0.1630   -2.2576   28.7414 H   0  0  0  0  0  0  0  0  0  0  0  0
    2.4421   -3.1567   29.1413 H   0  0  0  0  0  0  0  0  0  0  0  0
    2.0759   -1.7228   30.0740 H   0  0  0  0  0  0  0  0  0  0  0  0
    3.2137   -3.2650   31.4491 H   0  0  0  0  0  0  0  0  0  0  0  0
   -0.3826   -5.9203   30.1504 H   0  0  0  0  0  0  0  0  0  0  0  0
   -1.4949   -5.7122   31.4823 H   0  0  0  0  0  0  0  0  0  0  0  0
    0.2718   -8.0048   30.8833 H   0  0  0  0  0  0  0  0  0  0  0  0
   -1.3471   -8.0192   31.5594 H   0  0  0  0  0  0  0  0  0  0  0  0
    0.0140   -7.0082   34.8483 H   0  0  0  0  0  0  0  0  0  0  0  0
   -1.4352   -6.8320   33.8623 H   0  0  0  0  0  0  0  0  0  0  0  0
   -0.6702   -4.6147   33.7660 H   0  0  0  0  0  0  0  0  0  0  0  0
    0.9827   -5.0567   34.0666 H   0  0  0  0  0  0  0  0  0  0  0  0
  1  2  1  0
  2  3  2  0
  3  4  1  0
  4  5  2  0
  5  6  1  0
  6  7  1  0
  7  8  1  0
  8  9  1  0
  9 10  1  0
 10 11  2  0
 10 12  2  0
 10 13  1  0
 13 14  1  0
 14 15  1  0
 15 16  1  0
 16 17  1  0
 17 18  1  0
  6  2  1  0
 18 13  1  0
  1 19  1  0
  1 20  1  0
  1 21  1  0
  7 22  1  0
  7 23  1  0
  8 24  1  0
  8 25  1  0
  9 26  1  0
 14 27  1  0
 14 28  1  0
 15 29  1  0
 15 30  1  0
 17 31  1  0
 17 32  1  0
 18 33  1  0
 18 34  1  0
M  END
>  <Energy>  (529) 
-114.77583555333676

>  <compound_id>  (529) 
1829

>  <target_id>  (529) 
1

>  <reference_id>  (529) 
162

>  <inspiration_ids>  (529) 
[25, 162]

>  <energy_score>  (529) 
-90.75891800849354

>  <distance_score>  (529) 
2.1165358080199708

>  <path>  (529) 
/opt/xchem-fragalysis-2/maxwin/BulkDock/SCRATCH/505732/C1829-P162/C1829-P162.minimised.mol

>  <scratch_subdir>  (529) 
/opt/xchem-fragalysis-2/maxwin/BulkDock/SCRATCH/505732/C1829-P162

>  <fragmenstein_runtime>  (529) 
2.3219666481018066

>  <fragmenstein_outcome>  (529) 
too moved

>  <fragmenstein_mode>  (529) 
expansion

>  <fragmenstein_error>  (529) 


$$$$
C1831-P25
     RDKit          3D

 35 36  0  0  0  0  0  0  0  0999 V2000
   -1.0206   -5.6795   36.6651 N   0  0  0  0  0  0  0  0  0  0  0  0
   -0.9673   -6.3995   35.4103 C   0  0  0  0  0  0  0  0  0  0  0  0
   -1.7250   -7.2049   34.9389 O   0  0  0  0  0  0  0  0  0  0  0  0
    0.4040   -6.1229   34.5898 C   0  0  0  0  0  0  0  0  0  0  0  0
    0.2968   -6.7353   33.1684 C   0  0  0  0  0  0  0  0  0  0  0  0
   -0.5519   -5.9756   32.1598 C   0  0  0  0  0  0  0  0  0  0  0  0
    0.2606   -5.0545   31.2374 C   0  0  0  0  0  0  0  0  0  0  0  0
   -0.3756   -3.6827   31.0659 C   0  0  0  0  0  0  0  0  0  0  0  0
   -0.8307   -3.1781   32.3144 O   0  0  0  0  0  0  0  0  0  0  0  0
    0.2041   -2.7208   33.1755 C   0  0  0  0  0  0  0  0  0  0  0  0
    0.1667   -3.4877   34.5030 C   0  0  0  0  0  0  0  0  0  0  0  0
    1.0774   -4.7306   34.5440 C   0  0  0  0  0  0  0  0  0  0  0  0
    2.0651   -4.7158   35.7248 C   0  0  0  0  0  0  0  0  0  0  0  0
    2.1997   -6.1558   36.1907 C   0  0  0  0  0  0  0  0  0  0  0  0
    1.4631   -6.9597   35.2340 N   0  0  0  0  0  0  0  0  0  0  0  0
   -0.1414   -5.1591   36.7905 H   0  0  0  0  0  0  0  0  0  0  0  0
   -0.2606   -4.9840   36.6854 H   0  0  0  0  0  0  0  0  0  0  0  0
   -0.1100   -7.7495   33.2403 H   0  0  0  0  0  0  0  0  0  0  0  0
    1.3034   -6.8276   32.7607 H   0  0  0  0  0  0  0  0  0  0  0  0
   -1.0654   -6.7074   31.5241 H   0  0  0  0  0  0  0  0  0  0  0  0
   -1.3238   -5.4391   32.7050 H   0  0  0  0  0  0  0  0  0  0  0  0
    0.3725   -5.5178   30.2515 H   0  0  0  0  0  0  0  0  0  0  0  0
    1.2778   -4.9195   31.6143 H   0  0  0  0  0  0  0  0  0  0  0  0
    0.3164   -2.9769   30.5918 H   0  0  0  0  0  0  0  0  0  0  0  0
   -1.2482   -3.7494   30.4131 H   0  0  0  0  0  0  0  0  0  0  0  0
    1.1957   -2.7419   32.7088 H   0  0  0  0  0  0  0  0  0  0  0  0
   -0.0235   -1.6687   33.3816 H   0  0  0  0  0  0  0  0  0  0  0  0
   -0.8679   -3.7513   34.7359 H   0  0  0  0  0  0  0  0  0  0  0  0
    0.4956   -2.7846   35.2779 H   0  0  0  0  0  0  0  0  0  0  0  0
    1.7353   -4.6959   33.6670 H   0  0  0  0  0  0  0  0  0  0  0  0
    3.0344   -4.3241   35.3929 H   0  0  0  0  0  0  0  0  0  0  0  0
    1.7355   -4.0789   36.5527 H   0  0  0  0  0  0  0  0  0  0  0  0
    1.7838   -6.2734   37.1973 H   0  0  0  0  0  0  0  0  0  0  0  0
    3.2479   -6.4673   36.2322 H   0  0  0  0  0  0  0  0  0  0  0  0
    1.0390   -7.7824   35.6752 H   0  0  0  0  0  0  0  0  0  0  0  0
  1  2  1  0
  2  3  2  0
  2  4  1  0
  4  5  1  0
  5  6  1  0
  6  7  1  0
  7  8  1  0
  8  9  1  0
  9 10  1  0
 10 11  1  0
 11 12  1  0
 12 13  1  0
 13 14  1  0
 14 15  1  0
 12  4  1  0
 15  4  1  0
  1 16  1  0
  1 17  1  0
  5 18  1  0
  5 19  1  0
  6 20  1  0
  6 21  1  0
  7 22  1  0
  7 23  1  0
  8 24  1  0
  8 25  1  0
 10 26  1  0
 10 27  1  0
 11 28  1  0
 11 29  1  0
 12 30  1  0
 13 31  1  0
 13 32  1  0
 14 33  1  0
 14 34  1  0
 15 35  1  0
M  END
>  <Energy>  (530) 
246.04789114579637

>  <compound_id>  (530) 
1831

>  <target_id>  (530) 
1

>  <reference_id>  (530) 
25

>  <inspiration_ids>  (530) 
[25, 164]

>  <energy_score>  (530) 
102.74135781218348

>  <distance_score>  (530) 
3.187019514250348

>  <path>  (530) 
/opt/xchem-fragalysis-2/maxwin/BulkDock/SCRATCH/505732/C1831-P25/C1831-P25.minimised.mol

>  <scratch_subdir>  (530) 
/opt/xchem-fragalysis-2/maxwin/BulkDock/SCRATCH/505732/C1831-P25

>  <fragmenstein_runtime>  (530) 
3.5978240966796875

>  <fragmenstein_outcome>  (530) 
too moved

>  <fragmenstein_mode>  (530) 
expansion

>  <fragmenstein_error>  (530) 


$$$$
C1831-P164
     RDKit          3D

 35 36  0  0  0  0  0  0  0  0999 V2000
    2.3286   -7.5739   34.5719 N   0  0  0  0  0  0  0  0  0  0  0  0
    1.2112   -6.8203   34.0306 C   0  0  0  0  0  0  0  0  0  0  0  0
    0.1235   -7.1810   33.6839 O   0  0  0  0  0  0  0  0  0  0  0  0
    1.7070   -5.3187   33.8404 C   0  0  0  0  0  0  0  0  0  0  0  0
    2.1898   -5.1003   32.3894 C   0  0  0  0  0  0  0  0  0  0  0  0
    1.4071   -5.7420   31.2370 C   0  0  0  0  0  0  0  0  0  0  0  0
   -0.0245   -5.3142   30.9486 C   0  0  0  0  0  0  0  0  0  0  0  0
   -0.2022   -3.8274   30.7163 C   0  0  0  0  0  0  0  0  0  0  0  0
    0.1251   -3.0702   31.8705 O   0  0  0  0  0  0  0  0  0  0  0  0
   -0.8729   -3.0606   32.8818 C   0  0  0  0  0  0  0  0  0  0  0  0
   -0.6230   -4.0924   33.9807 C   0  0  0  0  0  0  0  0  0  0  0  0
    0.8326   -4.1965   34.4135 C   0  0  0  0  0  0  0  0  0  0  0  0
    0.9621   -4.4295   35.9129 C   0  0  0  0  0  0  0  0  0  0  0  0
    2.4193   -4.8054   36.0910 C   0  0  0  0  0  0  0  0  0  0  0  0
    2.9464   -5.1815   34.7482 N   0  0  0  0  0  0  0  0  0  0  0  0
    3.0800   -6.9034   34.8721 H   0  0  0  0  0  0  0  0  0  0  0  0
    3.1628   -6.9400   34.6501 H   0  0  0  0  0  0  0  0  0  0  0  0
    3.1995   -5.5220   32.3111 H   0  0  0  0  0  0  0  0  0  0  0  0
    2.3405   -4.0321   32.1938 H   0  0  0  0  0  0  0  0  0  0  0  0
    1.3808   -6.8233   31.3842 H   0  0  0  0  0  0  0  0  0  0  0  0
    1.9924   -5.5829   30.3212 H   0  0  0  0  0  0  0  0  0  0  0  0
   -0.6894   -5.6680   31.7362 H   0  0  0  0  0  0  0  0  0  0  0  0
   -0.3377   -5.8422   30.0424 H   0  0  0  0  0  0  0  0  0  0  0  0
   -1.2191   -3.5924   30.3845 H   0  0  0  0  0  0  0  0  0  0  0  0
    0.4711   -3.5025   29.9153 H   0  0  0  0  0  0  0  0  0  0  0  0
   -0.8285   -2.0645   33.3378 H   0  0  0  0  0  0  0  0  0  0  0  0
   -1.8804   -3.1607   32.4631 H   0  0  0  0  0  0  0  0  0  0  0  0
   -1.0157   -5.0643   33.6850 H   0  0  0  0  0  0  0  0  0  0  0  0
   -1.2267   -3.7795   34.8413 H   0  0  0  0  0  0  0  0  0  0  0  0
    1.3144   -3.2273   34.2091 H   0  0  0  0  0  0  0  0  0  0  0  0
    0.6997   -3.5370   36.4905 H   0  0  0  0  0  0  0  0  0  0  0  0
    0.3123   -5.2497   36.2423 H   0  0  0  0  0  0  0  0  0  0  0  0
    2.5302   -5.6355   36.7961 H   0  0  0  0  0  0  0  0  0  0  0  0
    2.9997   -3.9617   36.4803 H   0  0  0  0  0  0  0  0  0  0  0  0
    3.4478   -4.3496   34.4058 H   0  0  0  0  0  0  0  0  0  0  0  0
  1  2  1  0
  2  3  2  0
  2  4  1  0
  4  5  1  0
  5  6  1  0
  6  7  1  0
  7  8  1  0
  8  9  1  0
  9 10  1  0
 10 11  1  0
 11 12  1  0
 12 13  1  0
 13 14  1  0
 14 15  1  0
 12  4  1  0
 15  4  1  0
  1 16  1  0
  1 17  1  0
  5 18  1  0
  5 19  1  0
  6 20  1  0
  6 21  1  0
  7 22  1  0
  7 23  1  0
  8 24  1  0
  8 25  1  0
 10 26  1  0
 10 27  1  0
 11 28  1  0
 11 29  1  0
 12 30  1  0
 13 31  1  0
 13 32  1  0
 14 33  1  0
 14 34  1  0
 15 35  1  0
M  END
>  <Energy>  (531) 
217.52829570633162

>  <compound_id>  (531) 
1831

>  <target_id>  (531) 
1

>  <reference_id>  (531) 
164

>  <inspiration_ids>  (531) 
[25, 164]

>  <energy_score>  (531) 
74.22176237271981

>  <distance_score>  (531) 
3.6828386178906216

>  <path>  (531) 
/opt/xchem-fragalysis-2/maxwin/BulkDock/SCRATCH/505732/C1831-P164/C1831-P164.minimised.mol

>  <scratch_subdir>  (531) 
/opt/xchem-fragalysis-2/maxwin/BulkDock/SCRATCH/505732/C1831-P164

>  <fragmenstein_runtime>  (531) 
3.8961923122406006

>  <fragmenstein_outcome>  (531) 
too moved

>  <fragmenstein_mode>  (531) 
expansion

>  <fragmenstein_error>  (531) 


$$$$
C1835-P25
     RDKit          3D

 52 56  0  0  0  0  0  0  0  0999 V2000
    3.1550   -6.4743   27.0272 O   0  0  0  0  0  0  0  0  0  0  0  0
    3.3980   -5.5978   27.8488 C   0  0  0  0  0  0  0  0  0  0  0  0
    2.4772   -5.2095   28.7886 N   0  0  0  0  0  0  0  0  0  0  0  0
    2.4244   -3.8969   29.2668 C   0  0  0  0  0  0  0  0  0  0  0  0
    3.1634   -2.9660   28.4714 C   0  0  0  0  0  0  0  0  0  0  0  0
    2.8503   -1.6216   28.4963 C   0  0  0  0  0  0  0  0  0  0  0  0
    1.8901   -1.2033   29.3893 C   0  0  0  0  0  0  0  0  0  0  0  0
    1.3170   -2.0991   30.3171 C   0  0  0  0  0  0  0  0  0  0  0  0
    1.5903   -3.4805   30.3405 C   0  0  0  0  0  0  0  0  0  0  0  0
    1.3175   -4.2220   31.7770 C   0  0  0  0  0  0  0  0  0  0  0  0
    0.3522   -5.4177   31.8807 C   0  0  0  0  0  0  0  0  0  0  0  0
   -0.2068   -5.9911   30.7615 C   0  0  0  0  0  0  0  0  0  0  0  0
   -0.9421   -7.1799   30.8364 C   0  0  0  0  0  0  0  0  0  0  0  0
   -1.2543   -7.7623   32.0520 C   0  0  0  0  0  0  0  0  0  0  0  0
   -0.8145   -7.1461   33.2027 C   0  0  0  0  0  0  0  0  0  0  0  0
   -0.0274   -5.9920   33.1145 C   0  0  0  0  0  0  0  0  0  0  0  0
    2.6457   -4.5369   32.3923 N   0  0  0  0  0  0  0  0  0  0  0  0
    3.5354   -3.3296   32.4617 C   0  0  0  0  0  0  0  0  0  0  0  0
    4.0262   -3.8402   33.8327 C   0  0  0  0  0  0  0  0  0  0  0  0
    4.3044   -2.8429   34.8364 O   0  0  0  0  0  0  0  0  0  0  0  0
    2.6338   -4.5102   33.8835 C   0  0  0  0  0  0  0  0  0  0  0  0
    4.2999   -3.3949   27.5752 C   0  0  0  0  0  0  0  0  0  0  0  0
    4.7181   -4.8248   27.8418 C   0  0  0  0  0  0  0  0  0  0  0  0
    5.5783   -4.9776   29.0982 C   0  0  0  0  0  0  0  0  0  0  0  0
    6.5597   -6.1053   28.7907 C   0  0  0  0  0  0  0  0  0  0  0  0
    6.3171   -6.4770   27.3407 C   0  0  0  0  0  0  0  0  0  0  0  0
    5.6232   -5.3229   26.7805 N   0  0  0  0  0  0  0  0  0  0  0  0
    1.6519   -5.7821   28.8480 H   0  0  0  0  0  0  0  0  0  0  0  0
    3.3484   -0.9072   27.8471 H   0  0  0  0  0  0  0  0  0  0  0  0
    1.6232   -0.1491   29.4365 H   0  0  0  0  0  0  0  0  0  0  0  0
    0.6725   -1.6648   31.0826 H   0  0  0  0  0  0  0  0  0  0  0  0
    0.8255   -3.4449   32.3820 H   0  0  0  0  0  0  0  0  0  0  0  0
   -0.0862   -5.5186   29.7937 H   0  0  0  0  0  0  0  0  0  0  0  0
   -1.2839   -7.6112   29.9054 H   0  0  0  0  0  0  0  0  0  0  0  0
   -1.8548   -8.6631   32.1106 H   0  0  0  0  0  0  0  0  0  0  0  0
   -1.0734   -7.5543   34.1771 H   0  0  0  0  0  0  0  0  0  0  0  0
    0.2813   -5.5341   34.0504 H   0  0  0  0  0  0  0  0  0  0  0  0
    3.0353   -2.3553   32.5293 H   0  0  0  0  0  0  0  0  0  0  0  0
    4.3084   -3.2865   31.6890 H   0  0  0  0  0  0  0  0  0  0  0  0
    4.8553   -4.5557   33.7529 H   0  0  0  0  0  0  0  0  0  0  0  0
    4.5498   -3.3468   35.6311 H   0  0  0  0  0  0  0  0  0  0  0  0
    1.8688   -3.8795   34.3543 H   0  0  0  0  0  0  0  0  0  0  0  0
    2.6330   -5.4965   34.3570 H   0  0  0  0  0  0  0  0  0  0  0  0
    5.1515   -2.7148   27.7094 H   0  0  0  0  0  0  0  0  0  0  0  0
    3.9937   -3.3104   26.5361 H   0  0  0  0  0  0  0  0  0  0  0  0
    6.1545   -4.0651   29.2991 H   0  0  0  0  0  0  0  0  0  0  0  0
    5.0138   -5.1962   30.0046 H   0  0  0  0  0  0  0  0  0  0  0  0
    7.5874   -5.7541   28.9389 H   0  0  0  0  0  0  0  0  0  0  0  0
    6.4052   -6.9659   29.4488 H   0  0  0  0  0  0  0  0  0  0  0  0
    5.6931   -7.3759   27.2769 H   0  0  0  0  0  0  0  0  0  0  0  0
    7.2513   -6.6775   26.8079 H   0  0  0  0  0  0  0  0  0  0  0  0
    5.0804   -5.6225   25.9654 H   0  0  0  0  0  0  0  0  0  0  0  0
  1  2  2  0
  2  3  1  0
  3  4  1  0
  4  5  2  0
  5  6  1  0
  6  7  2  0
  7  8  1  0
  8  9  2  0
  9 10  1  0
 10 11  1  0
 11 12  2  0
 12 13  1  0
 13 14  2  0
 14 15  1  0
 15 16  2  0
 10 17  1  0
 17 18  1  0
 18 19  1  0
 19 20  1  0
 19 21  1  0
  5 22  1  0
 22 23  1  0
 23 24  1  0
 24 25  1  0
 25 26  1  0
 26 27  1  0
 23  2  1  0
  9  4  1  0
 16 11  1  0
 21 17  1  0
 27 23  1  0
  3 28  1  0
  6 29  1  0
  7 30  1  0
  8 31  1  0
 10 32  1  0
 12 33  1  0
 13 34  1  0
 14 35  1  0
 15 36  1  0
 16 37  1  0
 18 38  1  0
 18 39  1  0
 19 40  1  0
 20 41  1  0
 21 42  1  0
 21 43  1  0
 22 44  1  0
 22 45  1  0
 24 46  1  0
 24 47  1  0
 25 48  1  0
 25 49  1  0
 26 50  1  0
 26 51  1  0
 27 52  1  0
M  END
>  <Energy>  (532) 
157.17172642450302

>  <compound_id>  (532) 
1835

>  <target_id>  (532) 
1

>  <reference_id>  (532) 
25

>  <inspiration_ids>  (532) 
[25, 177]

>  <energy_score>  (532) 
-55.351159812533865

>  <distance_score>  (532) 
3.062382924810004

>  <path>  (532) 
/opt/xchem-fragalysis-2/maxwin/BulkDock/SCRATCH/505732/C1835-P25/C1835-P25.minimised.mol

>  <scratch_subdir>  (532) 
/opt/xchem-fragalysis-2/maxwin/BulkDock/SCRATCH/505732/C1835-P25

>  <fragmenstein_runtime>  (532) 
3.9822421073913574

>  <fragmenstein_outcome>  (532) 
too moved

>  <fragmenstein_mode>  (532) 
expansion

>  <fragmenstein_error>  (532) 


$$$$
C1835-P177
     RDKit          3D

 52 56  0  0  0  0  0  0  0  0999 V2000
    3.8159   -6.6152   27.3235 O   0  0  0  0  0  0  0  0  0  0  0  0
    3.4691   -5.4506   27.5054 C   0  0  0  0  0  0  0  0  0  0  0  0
    2.3540   -5.1375   28.2377 N   0  0  0  0  0  0  0  0  0  0  0  0
    2.0023   -3.8361   28.5869 C   0  0  0  0  0  0  0  0  0  0  0  0
    2.5785   -2.8170   27.7792 C   0  0  0  0  0  0  0  0  0  0  0  0
    2.4255   -1.4867   28.1045 C   0  0  0  0  0  0  0  0  0  0  0  0
    1.7507   -1.1890   29.2695 C   0  0  0  0  0  0  0  0  0  0  0  0
    1.1627   -2.1984   30.0616 C   0  0  0  0  0  0  0  0  0  0  0  0
    1.2217   -3.5612   29.7379 C   0  0  0  0  0  0  0  0  0  0  0  0
    0.3928   -4.5664   30.6184 C   0  0  0  0  0  0  0  0  0  0  0  0
    0.6770   -4.5540   32.1371 C   0  0  0  0  0  0  0  0  0  0  0  0
    1.9110   -5.0251   32.6022 C   0  0  0  0  0  0  0  0  0  0  0  0
    2.0231   -5.5328   33.8917 C   0  0  0  0  0  0  0  0  0  0  0  0
    0.9273   -5.5312   34.7504 C   0  0  0  0  0  0  0  0  0  0  0  0
   -0.2880   -5.0108   34.3178 C   0  0  0  0  0  0  0  0  0  0  0  0
   -0.4077   -4.4883   33.0342 C   0  0  0  0  0  0  0  0  0  0  0  0
    0.5423   -5.9672   30.1770 N   0  0  0  0  0  0  0  0  0  0  0  0
   -0.1001   -6.8653   31.1466 C   0  0  0  0  0  0  0  0  0  0  0  0
   -0.8464   -7.5612   30.0519 C   0  0  0  0  0  0  0  0  0  0  0  0
   -2.2098   -7.7026   30.4600 O   0  0  0  0  0  0  0  0  0  0  0  0
   -0.3789   -6.4183   29.1200 C   0  0  0  0  0  0  0  0  0  0  0  0
    3.4292   -3.1842   26.5952 C   0  0  0  0  0  0  0  0  0  0  0  0
    4.3595   -4.2988   27.0344 C   0  0  0  0  0  0  0  0  0  0  0  0
    5.3385   -3.8991   28.1495 C   0  0  0  0  0  0  0  0  0  0  0  0
    6.5589   -4.7514   27.8666 C   0  0  0  0  0  0  0  0  0  0  0  0
    6.6092   -4.7548   26.3555 C   0  0  0  0  0  0  0  0  0  0  0  0
    5.2143   -4.7525   25.9042 N   0  0  0  0  0  0  0  0  0  0  0  0
    1.9150   -5.9040   28.7228 H   0  0  0  0  0  0  0  0  0  0  0  0
    2.8559   -0.6945   27.4976 H   0  0  0  0  0  0  0  0  0  0  0  0
    1.6406   -0.1485   29.5710 H   0  0  0  0  0  0  0  0  0  0  0  0
    0.6072   -1.8800   30.9445 H   0  0  0  0  0  0  0  0  0  0  0  0
   -0.6522   -4.2504   30.4806 H   0  0  0  0  0  0  0  0  0  0  0  0
    2.7600   -5.0824   31.9261 H   0  0  0  0  0  0  0  0  0  0  0  0
    2.9777   -5.9202   34.2386 H   0  0  0  0  0  0  0  0  0  0  0  0
    1.0236   -5.9176   35.7620 H   0  0  0  0  0  0  0  0  0  0  0  0
   -1.1366   -4.9873   34.9966 H   0  0  0  0  0  0  0  0  0  0  0  0
   -1.3747   -4.1182   32.7075 H   0  0  0  0  0  0  0  0  0  0  0  0
   -0.8501   -6.4486   31.8251 H   0  0  0  0  0  0  0  0  0  0  0  0
    0.5536   -7.4597   31.7734 H   0  0  0  0  0  0  0  0  0  0  0  0
   -0.4516   -8.5125   29.7060 H   0  0  0  0  0  0  0  0  0  0  0  0
   -2.1848   -8.1064   31.3550 H   0  0  0  0  0  0  0  0  0  0  0  0
    0.1257   -6.8280   28.2370 H   0  0  0  0  0  0  0  0  0  0  0  0
   -1.0476   -5.6643   28.7155 H   0  0  0  0  0  0  0  0  0  0  0  0
    4.0048   -2.3211   26.2366 H   0  0  0  0  0  0  0  0  0  0  0  0
    2.7708   -3.4972   25.7742 H   0  0  0  0  0  0  0  0  0  0  0  0
    5.6136   -2.8395   28.0719 H   0  0  0  0  0  0  0  0  0  0  0  0
    4.9666   -4.0849   29.1623 H   0  0  0  0  0  0  0  0  0  0  0  0
    7.4667   -4.3384   28.3157 H   0  0  0  0  0  0  0  0  0  0  0  0
    6.4141   -5.7677   28.2519 H   0  0  0  0  0  0  0  0  0  0  0  0
    7.1590   -5.6156   25.9645 H   0  0  0  0  0  0  0  0  0  0  0  0
    7.0969   -3.8432   25.9971 H   0  0  0  0  0  0  0  0  0  0  0  0
    4.9529   -5.7228   25.6863 H   0  0  0  0  0  0  0  0  0  0  0  0
  1  2  2  0
  2  3  1  0
  3  4  1  0
  4  5  2  0
  5  6  1  0
  6  7  2  0
  7  8  1  0
  8  9  2  0
  9 10  1  0
 10 11  1  0
 11 12  2  0
 12 13  1  0
 13 14  2  0
 14 15  1  0
 15 16  2  0
 10 17  1  0
 17 18  1  0
 18 19  1  0
 19 20  1  0
 19 21  1  0
  5 22  1  0
 22 23  1  0
 23 24  1  0
 24 25  1  0
 25 26  1  0
 26 27  1  0
 23  2  1  0
  9  4  1  0
 16 11  1  0
 21 17  1  0
 27 23  1  0
  3 28  1  0
  6 29  1  0
  7 30  1  0
  8 31  1  0
 10 32  1  0
 12 33  1  0
 13 34  1  0
 14 35  1  0
 15 36  1  0
 16 37  1  0
 18 38  1  0
 18 39  1  0
 19 40  1  0
 20 41  1  0
 21 42  1  0
 21 43  1  0
 22 44  1  0
 22 45  1  0
 24 46  1  0
 24 47  1  0
 25 48  1  0
 25 49  1  0
 26 50  1  0
 26 51  1  0
 27 52  1  0
M  END
>  <Energy>  (533) 
151.09218549371684

>  <compound_id>  (533) 
1835

>  <target_id>  (533) 
1

>  <reference_id>  (533) 
177

>  <inspiration_ids>  (533) 
[25, 177]

>  <energy_score>  (533) 
-61.4307007433203

>  <distance_score>  (533) 
3.4917864188940517

>  <path>  (533) 
/opt/xchem-fragalysis-2/maxwin/BulkDock/SCRATCH/505732/C1835-P177/C1835-P177.minimised.mol

>  <scratch_subdir>  (533) 
/opt/xchem-fragalysis-2/maxwin/BulkDock/SCRATCH/505732/C1835-P177

>  <fragmenstein_runtime>  (533) 
4.06281304359436

>  <fragmenstein_outcome>  (533) 
too moved

>  <fragmenstein_mode>  (533) 
expansion

>  <fragmenstein_error>  (533) 


$$$$
C1836-P25
     RDKit          3D

 51 54  0  0  0  0  0  0  0  0999 V2000
    0.5587   -3.3583   28.5905 C   0  0  0  0  0  0  0  0  0  0  0  0
    1.7118   -4.0127   29.3545 C   0  0  0  0  0  0  0  0  0  0  0  0
    2.7771   -4.5038   28.3599 C   0  0  0  0  0  0  0  0  0  0  0  0
    2.1593   -3.1150   30.4470 N   0  0  0  0  0  0  0  0  0  0  0  0
    3.3654   -2.4005   30.3198 C   0  0  0  0  0  0  0  0  0  0  0  0
    4.1970   -2.5957   29.4340 O   0  0  0  0  0  0  0  0  0  0  0  0
    3.6154   -1.3707   31.4411 C   0  0  0  0  0  0  0  0  0  0  0  0
    3.8837   -2.0628   32.7853 C   0  0  0  0  0  0  0  0  0  0  0  0
    5.3449   -2.4682   32.6897 C   0  0  0  0  0  0  0  0  0  0  0  0
    5.9556   -1.5044   31.6829 C   0  0  0  0  0  0  0  0  0  0  0  0
    4.8775   -0.6127   31.2353 N   0  0  0  0  0  0  0  0  0  0  0  0
    2.3974   -0.4481   31.4140 C   0  0  0  0  0  0  0  0  0  0  0  0
    1.1758   -1.2669   31.7228 C   0  0  0  0  0  0  0  0  0  0  0  0
    0.1026   -0.6769   32.3980 C   0  0  0  0  0  0  0  0  0  0  0  0
   -0.9712   -1.4541   32.8048 C   0  0  0  0  0  0  0  0  0  0  0  0
   -0.9527   -2.8269   32.5806 C   0  0  0  0  0  0  0  0  0  0  0  0
    0.1062   -3.4374   31.8880 C   0  0  0  0  0  0  0  0  0  0  0  0
    0.1092   -4.8517   31.7100 N   0  0  0  0  0  0  0  0  0  0  0  0
   -0.2708   -5.8188   32.6726 C   0  0  0  0  0  0  0  0  0  0  0  0
   -0.9338   -6.9682   32.2393 C   0  0  0  0  0  0  0  0  0  0  0  0
   -1.4010   -7.8976   33.1620 C   0  0  0  0  0  0  0  0  0  0  0  0
   -1.1659   -7.7214   34.5228 C   0  0  0  0  0  0  0  0  0  0  0  0
   -0.4017   -6.6533   34.9598 C   0  0  0  0  0  0  0  0  0  0  0  0
    0.0607   -5.7293   34.0347 C   0  0  0  0  0  0  0  0  0  0  0  0
    0.8837   -4.7596   34.5304 O   0  0  0  0  0  0  0  0  0  0  0  0
    1.1360   -2.6270   31.3546 C   0  0  0  0  0  0  0  0  0  0  0  0
   -0.2837   -3.0739   29.2265 H   0  0  0  0  0  0  0  0  0  0  0  0
    0.1500   -4.0588   27.8703 H   0  0  0  0  0  0  0  0  0  0  0  0
    0.8936   -2.4496   28.0806 H   0  0  0  0  0  0  0  0  0  0  0  0
    1.3645   -4.9370   29.8121 H   0  0  0  0  0  0  0  0  0  0  0  0
    2.3808   -5.3089   27.7361 H   0  0  0  0  0  0  0  0  0  0  0  0
    3.6554   -4.9086   28.8709 H   0  0  0  0  0  0  0  0  0  0  0  0
    3.1023   -3.7102   27.6807 H   0  0  0  0  0  0  0  0  0  0  0  0
    3.2682   -2.9433   32.9904 H   0  0  0  0  0  0  0  0  0  0  0  0
    3.7518   -1.3586   33.6170 H   0  0  0  0  0  0  0  0  0  0  0  0
    5.8356   -2.4116   33.6665 H   0  0  0  0  0  0  0  0  0  0  0  0
    5.4321   -3.4984   32.3254 H   0  0  0  0  0  0  0  0  0  0  0  0
    6.7668   -0.9216   32.1320 H   0  0  0  0  0  0  0  0  0  0  0  0
    6.3827   -2.0480   30.8334 H   0  0  0  0  0  0  0  0  0  0  0  0
    4.8718    0.2107   31.8358 H   0  0  0  0  0  0  0  0  0  0  0  0
    2.2710    0.0261   30.4322 H   0  0  0  0  0  0  0  0  0  0  0  0
    2.5126    0.3492   32.1593 H   0  0  0  0  0  0  0  0  0  0  0  0
    0.1163    0.3842   32.6368 H   0  0  0  0  0  0  0  0  0  0  0  0
   -1.7979   -1.0058   33.3497 H   0  0  0  0  0  0  0  0  0  0  0  0
   -1.7655   -3.4218   32.9848 H   0  0  0  0  0  0  0  0  0  0  0  0
   -0.3823   -5.0306   30.8337 H   0  0  0  0  0  0  0  0  0  0  0  0
   -1.1327   -7.1369   31.1852 H   0  0  0  0  0  0  0  0  0  0  0  0
   -1.9636   -8.7572   32.8149 H   0  0  0  0  0  0  0  0  0  0  0  0
   -1.5436   -8.4381   35.2457 H   0  0  0  0  0  0  0  0  0  0  0  0
   -0.1643   -6.5371   36.0132 H   0  0  0  0  0  0  0  0  0  0  0  0
    1.2128   -4.2634   33.7618 H   0  0  0  0  0  0  0  0  0  0  0  0
  1  2  1  0
  2  3  1  0
  2  4  1  0
  4  5  1  0
  5  6  2  0
  5  7  1  0
  7  8  1  0
  8  9  1  0
  9 10  1  0
 10 11  1  0
  7 12  1  0
 12 13  1  0
 13 14  2  0
 14 15  1  0
 15 16  2  0
 16 17  1  0
 17 18  1  0
 18 19  1  0
 19 20  2  0
 20 21  1  0
 21 22  2  0
 22 23  1  0
 23 24  2  0
 24 25  1  0
 17 26  2  0
 26  4  1  0
 11  7  1  0
 26 13  1  0
 24 19  1  0
  1 27  1  0
  1 28  1  0
  1 29  1  0
  2 30  1  0
  3 31  1  0
  3 32  1  0
  3 33  1  0
  8 34  1  0
  8 35  1  0
  9 36  1  0
  9 37  1  0
 10 38  1  0
 10 39  1  0
 11 40  1  0
 12 41  1  0
 12 42  1  0
 14 43  1  0
 15 44  1  0
 16 45  1  0
 18 46  1  0
 20 47  1  0
 21 48  1  0
 22 49  1  0
 23 50  1  0
 25 51  1  0
M  END
>  <Energy>  (534) 
119.39531226277055

>  <compound_id>  (534) 
1836

>  <target_id>  (534) 
1

>  <reference_id>  (534) 
25

>  <inspiration_ids>  (534) 
[25, 180]

>  <energy_score>  (534) 
-77.4889194659819

>  <distance_score>  (534) 
3.6158574774244823

>  <path>  (534) 
/opt/xchem-fragalysis-2/maxwin/BulkDock/SCRATCH/505732/C1836-P25/C1836-P25.minimised.mol

>  <scratch_subdir>  (534) 
/opt/xchem-fragalysis-2/maxwin/BulkDock/SCRATCH/505732/C1836-P25

>  <fragmenstein_runtime>  (534) 
17.2995502948761

>  <fragmenstein_outcome>  (534) 
too moved

>  <fragmenstein_mode>  (534) 
expansion

>  <fragmenstein_error>  (534) 


$$$$
C1836-P180
     RDKit          3D

 51 54  0  0  0  0  0  0  0  0999 V2000
    2.9312   -3.6095   27.6597 C   0  0  0  0  0  0  0  0  0  0  0  0
    2.0309   -4.5995   28.4225 C   0  0  0  0  0  0  0  0  0  0  0  0
    2.6566   -5.9961   28.2554 C   0  0  0  0  0  0  0  0  0  0  0  0
    1.7490   -4.2269   29.8330 N   0  0  0  0  0  0  0  0  0  0  0  0
    2.9253   -4.0472   30.5498 C   0  0  0  0  0  0  0  0  0  0  0  0
    3.8420   -4.8701   30.5232 O   0  0  0  0  0  0  0  0  0  0  0  0
    2.9893   -2.7381   31.3467 C   0  0  0  0  0  0  0  0  0  0  0  0
    2.2130   -2.9085   32.6634 C   0  0  0  0  0  0  0  0  0  0  0  0
    3.1341   -3.7922   33.4831 C   0  0  0  0  0  0  0  0  0  0  0  0
    4.5236   -3.4321   32.9816 C   0  0  0  0  0  0  0  0  0  0  0  0
    4.3654   -2.5113   31.8433 N   0  0  0  0  0  0  0  0  0  0  0  0
    2.5483   -1.6041   30.3773 C   0  0  0  0  0  0  0  0  0  0  0  0
    1.1361   -1.8919   29.9288 C   0  0  0  0  0  0  0  0  0  0  0  0
    0.2131   -0.8668   29.7756 C   0  0  0  0  0  0  0  0  0  0  0  0
   -1.1168   -1.1606   30.0005 C   0  0  0  0  0  0  0  0  0  0  0  0
   -1.4687   -2.4296   30.4707 C   0  0  0  0  0  0  0  0  0  0  0  0
   -0.5508   -3.4923   30.5145 C   0  0  0  0  0  0  0  0  0  0  0  0
   -0.9015   -4.5344   31.4295 N   0  0  0  0  0  0  0  0  0  0  0  0
   -0.5818   -5.8970   31.5145 C   0  0  0  0  0  0  0  0  0  0  0  0
   -0.2773   -6.6083   30.3654 C   0  0  0  0  0  0  0  0  0  0  0  0
   -0.3479   -7.9803   30.3444 C   0  0  0  0  0  0  0  0  0  0  0  0
   -0.7977   -8.6213   31.4792 C   0  0  0  0  0  0  0  0  0  0  0  0
   -1.0032   -7.9464   32.6734 C   0  0  0  0  0  0  0  0  0  0  0  0
   -0.8577   -6.5850   32.6992 C   0  0  0  0  0  0  0  0  0  0  0  0
   -1.0560   -5.9004   33.8633 O   0  0  0  0  0  0  0  0  0  0  0  0
    0.7281   -3.2374   29.9993 C   0  0  0  0  0  0  0  0  0  0  0  0
    3.9163   -3.5027   28.1253 H   0  0  0  0  0  0  0  0  0  0  0  0
    2.4767   -2.6180   27.6021 H   0  0  0  0  0  0  0  0  0  0  0  0
    3.0949   -3.9542   26.6328 H   0  0  0  0  0  0  0  0  0  0  0  0
    1.0642   -4.5808   27.9235 H   0  0  0  0  0  0  0  0  0  0  0  0
    3.7095   -6.0302   28.5494 H   0  0  0  0  0  0  0  0  0  0  0  0
    2.1250   -6.7461   28.8406 H   0  0  0  0  0  0  0  0  0  0  0  0
    2.6410   -6.3023   27.2040 H   0  0  0  0  0  0  0  0  0  0  0  0
    1.2354   -3.3787   32.5936 H   0  0  0  0  0  0  0  0  0  0  0  0
    2.0823   -1.9379   33.1590 H   0  0  0  0  0  0  0  0  0  0  0  0
    3.0178   -3.6058   34.5551 H   0  0  0  0  0  0  0  0  0  0  0  0
    2.9217   -4.8516   33.2972 H   0  0  0  0  0  0  0  0  0  0  0  0
    5.1064   -2.9425   33.7698 H   0  0  0  0  0  0  0  0  0  0  0  0
    5.0822   -4.3273   32.6882 H   0  0  0  0  0  0  0  0  0  0  0  0
    4.4352   -1.5562   32.1940 H   0  0  0  0  0  0  0  0  0  0  0  0
    3.2121   -1.5276   29.5100 H   0  0  0  0  0  0  0  0  0  0  0  0
    2.5812   -0.6428   30.9058 H   0  0  0  0  0  0  0  0  0  0  0  0
    0.5251    0.1635   29.6296 H   0  0  0  0  0  0  0  0  0  0  0  0
   -1.8538   -0.3626   29.9652 H   0  0  0  0  0  0  0  0  0  0  0  0
   -2.4682   -2.5802   30.8697 H   0  0  0  0  0  0  0  0  0  0  0  0
   -0.8634   -4.1619   32.3847 H   0  0  0  0  0  0  0  0  0  0  0  0
   -0.0902   -6.0562   29.4615 H   0  0  0  0  0  0  0  0  0  0  0  0
   -0.1411   -8.5569   29.4494 H   0  0  0  0  0  0  0  0  0  0  0  0
   -0.9791   -9.6827   31.4083 H   0  0  0  0  0  0  0  0  0  0  0  0
   -1.3282   -8.4786   33.5549 H   0  0  0  0  0  0  0  0  0  0  0  0
   -1.1797   -6.5370   34.5867 H   0  0  0  0  0  0  0  0  0  0  0  0
  1  2  1  0
  2  3  1  0
  2  4  1  0
  4  5  1  0
  5  6  2  0
  5  7  1  0
  7  8  1  0
  8  9  1  0
  9 10  1  0
 10 11  1  0
  7 12  1  0
 12 13  1  0
 13 14  2  0
 14 15  1  0
 15 16  2  0
 16 17  1  0
 17 18  1  0
 18 19  1  0
 19 20  2  0
 20 21  1  0
 21 22  2  0
 22 23  1  0
 23 24  2  0
 24 25  1  0
 17 26  2  0
 26  4  1  0
 11  7  1  0
 26 13  1  0
 24 19  1  0
  1 27  1  0
  1 28  1  0
  1 29  1  0
  2 30  1  0
  3 31  1  0
  3 32  1  0
  3 33  1  0
  8 34  1  0
  8 35  1  0
  9 36  1  0
  9 37  1  0
 10 38  1  0
 10 39  1  0
 11 40  1  0
 12 41  1  0
 12 42  1  0
 14 43  1  0
 15 44  1  0
 16 45  1  0
 18 46  1  0
 20 47  1  0
 21 48  1  0
 22 49  1  0
 23 50  1  0
 25 51  1  0
M  END
>  <Energy>  (535) 
159.00945033213702

>  <compound_id>  (535) 
1836

>  <target_id>  (535) 
1

>  <reference_id>  (535) 
180

>  <inspiration_ids>  (535) 
[25, 180]

>  <energy_score>  (535) 
-39.44331111442585

>  <distance_score>  (535) 
2.461029425728378

>  <path>  (535) 
/opt/xchem-fragalysis-2/maxwin/BulkDock/SCRATCH/505732/C1836-P180/C1836-P180.minimised.mol

>  <scratch_subdir>  (535) 
/opt/xchem-fragalysis-2/maxwin/BulkDock/SCRATCH/505732/C1836-P180

>  <fragmenstein_runtime>  (535) 
14.994377851486206

>  <fragmenstein_outcome>  (535) 
too moved

>  <fragmenstein_mode>  (535) 
expansion

>  <fragmenstein_error>  (535) 


$$$$
C1837-P25
     RDKit          3D

 55 58  0  0  0  0  0  0  0  0999 V2000
   -0.4752   -6.9405   34.1783 C   0  0  0  0  0  0  0  0  0  0  0  0
   -0.9659   -7.4681   35.5060 C   0  0  0  0  0  0  0  0  0  0  0  0
   -2.0858   -7.8995   35.6019 O   0  0  0  0  0  0  0  0  0  0  0  0
    0.0642   -7.3343   36.4837 N   0  0  0  0  0  0  0  0  0  0  0  0
    0.0484   -7.5835   37.9689 C   0  0  0  0  0  0  0  0  0  0  0  0
    1.2593   -7.0615   38.7544 C   0  0  0  0  0  0  0  0  0  0  0  0
    2.4893   -7.3588   38.0076 N   0  0  0  0  0  0  0  0  0  0  0  0
    3.1676   -6.3361   37.3658 C   0  0  0  0  0  0  0  0  0  0  0  0
    2.6459   -5.2137   36.8553 C   0  0  0  0  0  0  0  0  0  0  0  0
    3.4479   -4.1157   36.2561 C   0  0  0  0  0  0  0  0  0  0  0  0
    3.8459   -4.3542   34.8178 C   0  0  0  0  0  0  0  0  0  0  0  0
    5.0338   -5.0789   34.5874 C   0  0  0  0  0  0  0  0  0  0  0  0
    5.5650   -5.2028   33.3094 C   0  0  0  0  0  0  0  0  0  0  0  0
    4.9209   -4.5905   32.2435 C   0  0  0  0  0  0  0  0  0  0  0  0
    3.7228   -3.9038   32.4484 C   0  0  0  0  0  0  0  0  0  0  0  0
    3.1450   -3.8067   33.7209 C   0  0  0  0  0  0  0  0  0  0  0  0
    1.9027   -2.9648   33.8962 C   0  0  0  0  0  0  0  0  0  0  0  0
    1.0990   -2.7278   32.6046 C   0  0  0  0  0  0  0  0  0  0  0  0
    0.1878   -3.8966   32.2353 C   0  0  0  0  0  0  0  0  0  0  0  0
   -0.8482   -3.2544   31.3251 C   0  0  0  0  0  0  0  0  0  0  0  0
   -0.9054   -1.7943   31.7528 C   0  0  0  0  0  0  0  0  0  0  0  0
    0.1141   -1.6244   32.7988 N   0  0  0  0  0  0  0  0  0  0  0  0
    2.0531   -2.4441   31.4198 C   0  0  0  0  0  0  0  0  0  0  0  0
    1.8223   -1.6750   30.4881 O   0  0  0  0  0  0  0  0  0  0  0  0
    3.1743   -3.2255   31.3605 N   0  0  0  0  0  0  0  0  0  0  0  0
    2.3021   -8.6212   37.2803 C   0  0  0  0  0  0  0  0  0  0  0  0
    0.9415   -8.5967   36.5061 C   0  0  0  0  0  0  0  0  0  0  0  0
   -0.4340   -7.7579   33.4560 H   0  0  0  0  0  0  0  0  0  0  0  0
   -1.1829   -6.1907   33.8219 H   0  0  0  0  0  0  0  0  0  0  0  0
    0.5142   -6.4813   34.2552 H   0  0  0  0  0  0  0  0  0  0  0  0
   -0.7922   -6.9639   38.3098 H   0  0  0  0  0  0  0  0  0  0  0  0
   -0.2527   -8.5920   38.2928 H   0  0  0  0  0  0  0  0  0  0  0  0
    1.1556   -5.9903   38.9649 H   0  0  0  0  0  0  0  0  0  0  0  0
    1.2991   -7.5588   39.7311 H   0  0  0  0  0  0  0  0  0  0  0  0
    4.2335   -6.5439   37.2962 H   0  0  0  0  0  0  0  0  0  0  0  0
    1.5754   -5.0385   36.9000 H   0  0  0  0  0  0  0  0  0  0  0  0
    2.9005   -3.1711   36.3560 H   0  0  0  0  0  0  0  0  0  0  0  0
    4.3566   -3.9529   36.8530 H   0  0  0  0  0  0  0  0  0  0  0  0
    5.5822   -5.5079   35.4247 H   0  0  0  0  0  0  0  0  0  0  0  0
    6.5001   -5.7341   33.1545 H   0  0  0  0  0  0  0  0  0  0  0  0
    5.3702   -4.6426   31.2550 H   0  0  0  0  0  0  0  0  0  0  0  0
    1.2506   -3.4188   34.6526 H   0  0  0  0  0  0  0  0  0  0  0  0
    2.2366   -1.9950   34.2911 H   0  0  0  0  0  0  0  0  0  0  0  0
    0.6976   -4.7268   31.7361 H   0  0  0  0  0  0  0  0  0  0  0  0
   -0.3152   -4.2842   33.1265 H   0  0  0  0  0  0  0  0  0  0  0  0
   -1.8196   -3.7352   31.4266 H   0  0  0  0  0  0  0  0  0  0  0  0
   -0.5399   -3.3329   30.2762 H   0  0  0  0  0  0  0  0  0  0  0  0
   -1.8945   -1.5349   32.1454 H   0  0  0  0  0  0  0  0  0  0  0  0
   -0.7088   -1.1279   30.9066 H   0  0  0  0  0  0  0  0  0  0  0  0
   -0.3418   -1.7444   33.7035 H   0  0  0  0  0  0  0  0  0  0  0  0
    3.7220   -3.1020   30.5180 H   0  0  0  0  0  0  0  0  0  0  0  0
    2.2913   -9.4525   37.9965 H   0  0  0  0  0  0  0  0  0  0  0  0
    3.1340   -8.8171   36.5920 H   0  0  0  0  0  0  0  0  0  0  0  0
    1.2554   -8.6797   35.4572 H   0  0  0  0  0  0  0  0  0  0  0  0
    0.3518   -9.5207   36.6360 H   0  0  0  0  0  0  0  0  0  0  0  0
  1  2  1  0
  2  3  2  0
  2  4  1  0
  4  5  1  0
  5  6  1  0
  6  7  1  0
  7  8  1  0
  8  9  2  3
  9 10  1  0
 10 11  1  0
 11 12  2  0
 12 13  1  0
 13 14  2  0
 14 15  1  0
 15 16  2  0
 16 17  1  0
 17 18  1  0
 18 19  1  0
 19 20  1  0
 20 21  1  0
 21 22  1  0
 18 23  1  0
 23 24  2  0
 23 25  1  0
  7 26  1  0
 26 27  1  0
 27  4  1  0
 16 11  1  0
 22 18  1  0
 25 15  1  0
  1 28  1  0
  1 29  1  0
  1 30  1  0
  5 31  1  0
  5 32  1  0
  6 33  1  0
  6 34  1  0
  8 35  1  0
  9 36  1  0
 10 37  1  0
 10 38  1  0
 12 39  1  0
 13 40  1  0
 14 41  1  0
 17 42  1  0
 17 43  1  0
 19 44  1  0
 19 45  1  0
 20 46  1  0
 20 47  1  0
 21 48  1  0
 21 49  1  0
 22 50  1  0
 25 51  1  0
 26 52  1  0
 26 53  1  0
 27 54  1  0
 27 55  1  0
M  END
>  <Energy>  (536) 
196.90065547463479

>  <compound_id>  (536) 
1837

>  <target_id>  (536) 
1

>  <reference_id>  (536) 
25

>  <inspiration_ids>  (536) 
[25, 183]

>  <energy_score>  (536) 
20.272409582292596

>  <distance_score>  (536) 
4.255108653095681

>  <path>  (536) 
/opt/xchem-fragalysis-2/maxwin/BulkDock/SCRATCH/505732/C1837-P25/C1837-P25.minimised.mol

>  <scratch_subdir>  (536) 
/opt/xchem-fragalysis-2/maxwin/BulkDock/SCRATCH/505732/C1837-P25

>  <fragmenstein_runtime>  (536) 
14.782442331314087

>  <fragmenstein_outcome>  (536) 
too moved

>  <fragmenstein_mode>  (536) 
expansion

>  <fragmenstein_error>  (536) 


$$$$
C1837-P183
     RDKit          3D

 55 58  0  0  0  0  0  0  0  0999 V2000
    0.1953   -6.8469   32.2293 C   0  0  0  0  0  0  0  0  0  0  0  0
   -0.7512   -7.3329   33.2901 C   0  0  0  0  0  0  0  0  0  0  0  0
   -1.6459   -8.0686   32.9723 O   0  0  0  0  0  0  0  0  0  0  0  0
   -0.4454   -6.7348   34.5462 N   0  0  0  0  0  0  0  0  0  0  0  0
   -1.1957   -6.7409   35.8351 C   0  0  0  0  0  0  0  0  0  0  0  0
   -0.7136   -5.7511   36.9132 C   0  0  0  0  0  0  0  0  0  0  0  0
    0.7483   -5.8546   37.0406 N   0  0  0  0  0  0  0  0  0  0  0  0
    1.5591   -4.8051   36.6570 C   0  0  0  0  0  0  0  0  0  0  0  0
    1.2754   -3.4985   36.6690 C   0  0  0  0  0  0  0  0  0  0  0  0
    2.1070   -2.4515   36.0046 C   0  0  0  0  0  0  0  0  0  0  0  0
    2.8873   -2.9281   34.7937 C   0  0  0  0  0  0  0  0  0  0  0  0
    4.2883   -3.0106   34.9073 C   0  0  0  0  0  0  0  0  0  0  0  0
    5.0670   -3.4867   33.8562 C   0  0  0  0  0  0  0  0  0  0  0  0
    4.4580   -3.8806   32.6707 C   0  0  0  0  0  0  0  0  0  0  0  0
    3.0738   -3.7854   32.5339 C   0  0  0  0  0  0  0  0  0  0  0  0
    2.2688   -3.3196   33.5824 C   0  0  0  0  0  0  0  0  0  0  0  0
    0.7676   -3.3625   33.3919 C   0  0  0  0  0  0  0  0  0  0  0  0
    0.3418   -3.1151   31.9327 C   0  0  0  0  0  0  0  0  0  0  0  0
    0.4915   -1.6451   31.5405 C   0  0  0  0  0  0  0  0  0  0  0  0
   -0.4846   -1.4708   30.3893 C   0  0  0  0  0  0  0  0  0  0  0  0
   -1.5110   -2.5771   30.5597 C   0  0  0  0  0  0  0  0  0  0  0  0
   -1.1240   -3.3510   31.7516 N   0  0  0  0  0  0  0  0  0  0  0  0
    1.1957   -3.9829   30.9718 C   0  0  0  0  0  0  0  0  0  0  0  0
    0.8208   -4.4287   29.8871 O   0  0  0  0  0  0  0  0  0  0  0  0
    2.5045   -4.1744   31.3222 N   0  0  0  0  0  0  0  0  0  0  0  0
    1.1433   -7.2216   36.7014 C   0  0  0  0  0  0  0  0  0  0  0  0
    0.4940   -7.6364   35.3447 C   0  0  0  0  0  0  0  0  0  0  0  0
    1.1324   -6.4768   32.6489 H   0  0  0  0  0  0  0  0  0  0  0  0
   -0.3118   -6.0608   31.6712 H   0  0  0  0  0  0  0  0  0  0  0  0
    0.4175   -7.6642   31.5409 H   0  0  0  0  0  0  0  0  0  0  0  0
   -1.4834   -7.7360   36.2125 H   0  0  0  0  0  0  0  0  0  0  0  0
   -2.1691   -6.3623   35.5258 H   0  0  0  0  0  0  0  0  0  0  0  0
   -1.1745   -5.9840   37.8780 H   0  0  0  0  0  0  0  0  0  0  0  0
   -1.0431   -4.7440   36.6368 H   0  0  0  0  0  0  0  0  0  0  0  0
    2.5109   -5.1415   36.2485 H   0  0  0  0  0  0  0  0  0  0  0  0
    0.3493   -3.1470   37.1121 H   0  0  0  0  0  0  0  0  0  0  0  0
    1.4586   -1.6281   35.6792 H   0  0  0  0  0  0  0  0  0  0  0  0
    2.7763   -2.0074   36.7520 H   0  0  0  0  0  0  0  0  0  0  0  0
    4.7805   -2.7163   35.8331 H   0  0  0  0  0  0  0  0  0  0  0  0
    6.1468   -3.5478   33.9641 H   0  0  0  0  0  0  0  0  0  0  0  0
    5.0775   -4.2406   31.8544 H   0  0  0  0  0  0  0  0  0  0  0  0
    0.4254   -4.3484   33.7191 H   0  0  0  0  0  0  0  0  0  0  0  0
    0.2742   -2.6257   34.0352 H   0  0  0  0  0  0  0  0  0  0  0  0
    0.1965   -0.9819   32.3638 H   0  0  0  0  0  0  0  0  0  0  0  0
    1.5064   -1.3685   31.2354 H   0  0  0  0  0  0  0  0  0  0  0  0
    0.0338   -1.5809   29.4296 H   0  0  0  0  0  0  0  0  0  0  0  0
   -0.9436   -0.4772   30.4094 H   0  0  0  0  0  0  0  0  0  0  0  0
   -1.5250   -3.2208   29.6752 H   0  0  0  0  0  0  0  0  0  0  0  0
   -2.5204   -2.1717   30.6839 H   0  0  0  0  0  0  0  0  0  0  0  0
   -1.6072   -2.9549   32.5605 H   0  0  0  0  0  0  0  0  0  0  0  0
    3.0721   -4.6054   30.6067 H   0  0  0  0  0  0  0  0  0  0  0  0
    0.7936   -7.9007   37.4904 H   0  0  0  0  0  0  0  0  0  0  0  0
    2.2328   -7.3450   36.6624 H   0  0  0  0  0  0  0  0  0  0  0  0
    1.3473   -7.7838   34.6662 H   0  0  0  0  0  0  0  0  0  0  0  0
    0.0589   -8.6350   35.4195 H   0  0  0  0  0  0  0  0  0  0  0  0
  1  2  1  0
  2  3  2  0
  2  4  1  0
  4  5  1  0
  5  6  1  0
  6  7  1  0
  7  8  1  0
  8  9  2  3
  9 10  1  0
 10 11  1  0
 11 12  2  0
 12 13  1  0
 13 14  2  0
 14 15  1  0
 15 16  2  0
 16 17  1  0
 17 18  1  0
 18 19  1  0
 19 20  1  0
 20 21  1  0
 21 22  1  0
 18 23  1  0
 23 24  2  0
 23 25  1  0
  7 26  1  0
 26 27  1  0
 27  4  1  0
 16 11  1  0
 22 18  1  0
 25 15  1  0
  1 28  1  0
  1 29  1  0
  1 30  1  0
  5 31  1  0
  5 32  1  0
  6 33  1  0
  6 34  1  0
  8 35  1  0
  9 36  1  0
 10 37  1  0
 10 38  1  0
 12 39  1  0
 13 40  1  0
 14 41  1  0
 17 42  1  0
 17 43  1  0
 19 44  1  0
 19 45  1  0
 20 46  1  0
 20 47  1  0
 21 48  1  0
 21 49  1  0
 22 50  1  0
 25 51  1  0
 26 52  1  0
 26 53  1  0
 27 54  1  0
 27 55  1  0
M  END
>  <Energy>  (537) 
192.30642053104995

>  <compound_id>  (537) 
1837

>  <target_id>  (537) 
1

>  <reference_id>  (537) 
183

>  <inspiration_ids>  (537) 
[25, 183]

>  <energy_score>  (537) 
15.678174638708072

>  <distance_score>  (537) 
3.91453614594534

>  <path>  (537) 
/opt/xchem-fragalysis-2/maxwin/BulkDock/SCRATCH/505732/C1837-P183/C1837-P183.minimised.mol

>  <scratch_subdir>  (537) 
/opt/xchem-fragalysis-2/maxwin/BulkDock/SCRATCH/505732/C1837-P183

>  <fragmenstein_runtime>  (537) 
11.382893800735474

>  <fragmenstein_outcome>  (537) 
too moved

>  <fragmenstein_mode>  (537) 
expansion

>  <fragmenstein_error>  (537) 


$$$$
C1841-P25
     RDKit          3D

 46 49  0  0  0  0  0  0  0  0999 V2000
   -0.6718   -5.0554   37.7703 C   0  0  0  0  0  0  0  0  0  0  0  0
   -0.7509   -5.2551   36.2630 C   0  0  0  0  0  0  0  0  0  0  0  0
    0.4048   -6.1119   35.7586 C   0  0  0  0  0  0  0  0  0  0  0  0
    0.6226   -6.1973   34.2320 C   0  0  0  0  0  0  0  0  0  0  0  0
    1.4878   -7.3302   34.0182 O   0  0  0  0  0  0  0  0  0  0  0  0
   -0.5780   -6.4807   33.4433 N   0  0  0  0  0  0  0  0  0  0  0  0
   -0.3542   -5.9745   32.0657 C   0  0  0  0  0  0  0  0  0  0  0  0
    0.6724   -4.9195   31.9258 N   0  0  0  0  0  0  0  0  0  0  0  0
    0.1227   -3.5909   31.1700 C   0  0  0  0  0  0  0  0  0  0  0  0
   -0.2655   -3.7463   29.8540 C   0  0  0  0  0  0  0  0  0  0  0  0
   -0.6273   -2.5914   29.1227 C   0  0  0  0  0  0  0  0  0  0  0  0
   -0.6249   -1.2658   29.6377 C   0  0  0  0  0  0  0  0  0  0  0  0
   -0.2273   -0.9695   30.9371 C   0  0  0  0  0  0  0  0  0  0  0  0
    0.1646   -2.0493   31.7128 C   0  0  0  0  0  0  0  0  0  0  0  0
    0.7994   -1.6283   33.4314 C   0  0  0  0  0  0  0  0  0  0  0  0
    1.1776   -3.2007   34.4869 C   0  0  0  0  0  0  0  0  0  0  0  0
    0.3870   -3.3504   33.3969 C   0  0  0  0  0  0  0  0  0  0  0  0
    2.1563   -3.1366   32.5045 C   0  0  0  0  0  0  0  0  0  0  0  0
    3.2690   -2.9152   33.5423 C   0  0  0  0  0  0  0  0  0  0  0  0
    2.5519   -2.8386   34.7882 N   0  0  0  0  0  0  0  0  0  0  0  0
    1.3484   -4.9136   33.6258 C   0  0  0  0  0  0  0  0  0  0  0  0
    0.2496   -4.5336   38.0480 H   0  0  0  0  0  0  0  0  0  0  0  0
   -1.5171   -4.4541   38.1186 H   0  0  0  0  0  0  0  0  0  0  0  0
   -0.6958   -6.0149   38.2965 H   0  0  0  0  0  0  0  0  0  0  0  0
   -0.7797   -4.2753   35.7861 H   0  0  0  0  0  0  0  0  0  0  0  0
   -1.6881   -5.7648   36.0303 H   0  0  0  0  0  0  0  0  0  0  0  0
    0.2525   -7.1202   36.1695 H   0  0  0  0  0  0  0  0  0  0  0  0
    1.3446   -5.7672   36.2117 H   0  0  0  0  0  0  0  0  0  0  0  0
    1.2296   -7.9844   34.6897 H   0  0  0  0  0  0  0  0  0  0  0  0
   -0.7483   -7.4792   33.4035 H   0  0  0  0  0  0  0  0  0  0  0  0
   -1.3111   -5.6206   31.6993 H   0  0  0  0  0  0  0  0  0  0  0  0
   -0.0708   -6.8139   31.4294 H   0  0  0  0  0  0  0  0  0  0  0  0
   -0.2588   -4.7096   29.3639 H   0  0  0  0  0  0  0  0  0  0  0  0
   -0.9206   -2.7135   28.0798 H   0  0  0  0  0  0  0  0  0  0  0  0
   -0.9248   -0.4577   28.9708 H   0  0  0  0  0  0  0  0  0  0  0  0
   -0.1948    0.0472   31.3045 H   0  0  0  0  0  0  0  0  0  0  0  0
    0.0069   -1.0383   33.9329 H   0  0  0  0  0  0  0  0  0  0  0  0
    1.6634   -0.9559   33.3053 H   0  0  0  0  0  0  0  0  0  0  0  0
   -0.5994   -2.7706   33.4386 H   0  0  0  0  0  0  0  0  0  0  0  0
   -0.3366   -4.1801   33.5292 H   0  0  0  0  0  0  0  0  0  0  0  0
    2.2629   -2.2887   31.8048 H   0  0  0  0  0  0  0  0  0  0  0  0
    2.5046   -3.9614   31.8587 H   0  0  0  0  0  0  0  0  0  0  0  0
    3.8228   -1.9899   33.3518 H   0  0  0  0  0  0  0  0  0  0  0  0
    3.9950   -3.7358   33.5399 H   0  0  0  0  0  0  0  0  0  0  0  0
    2.9575   -3.4691   35.4764 H   0  0  0  0  0  0  0  0  0  0  0  0
    2.4043   -5.2009   33.5079 H   0  0  0  0  0  0  0  0  0  0  0  0
  1  2  1  0
  2  3  1  0
  3  4  1  0
  4  5  1  0
  4  6  1  0
  6  7  1  0
  7  8  1  0
  8  9  1  0
  9 10  2  0
 10 11  1  0
 11 12  2  0
 12 13  1  0
 13 14  2  0
 14 15  1  0
 15 16  1  0
 16 17  1  0
 17 18  1  0
 18 19  1  0
 19 20  1  0
 16 21  1  0
 21  4  1  0
 21  8  1  0
 14  9  1  0
 20 16  1  0
  1 22  1  0
  1 23  1  0
  1 24  1  0
  2 25  1  0
  2 26  1  0
  3 27  1  0
  3 28  1  0
  5 29  1  0
  6 30  1  0
  7 31  1  0
  7 32  1  0
 10 33  1  0
 11 34  1  0
 12 35  1  0
 13 36  1  0
 15 37  1  0
 15 38  1  0
 17 39  1  0
 17 40  1  0
 18 41  1  0
 18 42  1  0
 19 43  1  0
 19 44  1  0
 20 45  1  0
 21 46  1  0
M  END
>  <Energy>  (538) 
640.46625870240018

>  <compound_id>  (538) 
1841

>  <target_id>  (538) 
1

>  <reference_id>  (538) 
25

>  <inspiration_ids>  (538) 
[25, 189]

>  <energy_score>  (538) 
544.1649445640483

>  <distance_score>  (538) 
3.2021173065268655

>  <path>  (538) 
/opt/xchem-fragalysis-2/maxwin/BulkDock/SCRATCH/505732/C1841-P25/C1841-P25.minimised.mol

>  <scratch_subdir>  (538) 
/opt/xchem-fragalysis-2/maxwin/BulkDock/SCRATCH/505732/C1841-P25

>  <fragmenstein_runtime>  (538) 
8.66089415550232

>  <fragmenstein_outcome>  (538) 
too moved

>  <fragmenstein_mode>  (538) 
expansion

>  <fragmenstein_error>  (538) 


$$$$
C1841-P189
     RDKit          3D

 46 49  0  0  0  0  0  0  0  0999 V2000
   -0.4922   -6.5606   36.6261 C   0  0  0  0  0  0  0  0  0  0  0  0
   -0.9589   -6.2668   35.2051 C   0  0  0  0  0  0  0  0  0  0  0  0
    0.0789   -6.7591   34.2135 C   0  0  0  0  0  0  0  0  0  0  0  0
    0.0948   -6.2077   32.7724 C   0  0  0  0  0  0  0  0  0  0  0  0
    1.4426   -6.3839   32.3765 O   0  0  0  0  0  0  0  0  0  0  0  0
   -0.6087   -7.0359   31.7740 N   0  0  0  0  0  0  0  0  0  0  0  0
   -0.5459   -6.0919   30.6240 C   0  0  0  0  0  0  0  0  0  0  0  0
   -0.8998   -4.7559   31.0942 N   0  0  0  0  0  0  0  0  0  0  0  0
   -1.0575   -3.5329   30.4526 C   0  0  0  0  0  0  0  0  0  0  0  0
   -1.1998   -3.3566   29.0907 C   0  0  0  0  0  0  0  0  0  0  0  0
   -1.4960   -2.0898   28.5121 C   0  0  0  0  0  0  0  0  0  0  0  0
   -1.6098   -0.9355   29.2544 C   0  0  0  0  0  0  0  0  0  0  0  0
   -1.3797   -1.0487   30.6007 C   0  0  0  0  0  0  0  0  0  0  0  0
   -1.0709   -2.3098   31.1712 C   0  0  0  0  0  0  0  0  0  0  0  0
   -0.5628   -2.3068   32.5877 C   0  0  0  0  0  0  0  0  0  0  0  0
    0.3974   -3.5096   32.7705 C   0  0  0  0  0  0  0  0  0  0  0  0
    1.5930   -3.4101   31.7852 C   0  0  0  0  0  0  0  0  0  0  0  0
    2.8227   -3.6057   32.6326 C   0  0  0  0  0  0  0  0  0  0  0  0
    2.3705   -3.0371   33.9516 C   0  0  0  0  0  0  0  0  0  0  0  0
    0.9978   -3.5050   34.1099 N   0  0  0  0  0  0  0  0  0  0  0  0
   -0.4854   -4.7494   32.5259 C   0  0  0  0  0  0  0  0  0  0  0  0
    0.4710   -6.0804   36.8300 H   0  0  0  0  0  0  0  0  0  0  0  0
   -1.2054   -6.1676   37.3539 H   0  0  0  0  0  0  0  0  0  0  0  0
   -0.3729   -7.6363   36.7843 H   0  0  0  0  0  0  0  0  0  0  0  0
   -1.1016   -5.1869   35.1353 H   0  0  0  0  0  0  0  0  0  0  0  0
   -1.9140   -6.7614   35.0142 H   0  0  0  0  0  0  0  0  0  0  0  0
    0.0308   -7.8545   34.1774 H   0  0  0  0  0  0  0  0  0  0  0  0
    1.0711   -6.5576   34.6455 H   0  0  0  0  0  0  0  0  0  0  0  0
    1.4254   -7.3013   32.0552 H   0  0  0  0  0  0  0  0  0  0  0  0
   -1.5901   -7.0659   32.0512 H   0  0  0  0  0  0  0  0  0  0  0  0
   -1.1402   -6.5180   29.8210 H   0  0  0  0  0  0  0  0  0  0  0  0
    0.4698   -6.0731   30.2051 H   0  0  0  0  0  0  0  0  0  0  0  0
   -1.1313   -4.2090   28.4283 H   0  0  0  0  0  0  0  0  0  0  0  0
   -1.6985   -2.0192   27.4509 H   0  0  0  0  0  0  0  0  0  0  0  0
   -1.8453    0.0128   28.7846 H   0  0  0  0  0  0  0  0  0  0  0  0
   -1.3835   -0.1545   31.2182 H   0  0  0  0  0  0  0  0  0  0  0  0
   -1.4121   -2.3550   33.2812 H   0  0  0  0  0  0  0  0  0  0  0  0
   -0.0238   -1.3723   32.7935 H   0  0  0  0  0  0  0  0  0  0  0  0
    1.6006   -4.1361   30.9688 H   0  0  0  0  0  0  0  0  0  0  0  0
    1.6571   -2.4115   31.3330 H   0  0  0  0  0  0  0  0  0  0  0  0
    3.6912   -3.0769   32.2284 H   0  0  0  0  0  0  0  0  0  0  0  0
    3.0919   -4.6606   32.7331 H   0  0  0  0  0  0  0  0  0  0  0  0
    3.0008   -3.3755   34.7789 H   0  0  0  0  0  0  0  0  0  0  0  0
    2.3962   -1.9407   33.9306 H   0  0  0  0  0  0  0  0  0  0  0  0
    0.4889   -2.9047   34.7573 H   0  0  0  0  0  0  0  0  0  0  0  0
   -1.4148   -4.6657   33.0969 H   0  0  0  0  0  0  0  0  0  0  0  0
  1  2  1  0
  2  3  1  0
  3  4  1  0
  4  5  1  0
  4  6  1  0
  6  7  1  0
  7  8  1  0
  8  9  1  0
  9 10  2  0
 10 11  1  0
 11 12  2  0
 12 13  1  0
 13 14  2  0
 14 15  1  0
 15 16  1  0
 16 17  1  0
 17 18  1  0
 18 19  1  0
 19 20  1  0
 16 21  1  0
 21  4  1  0
 21  8  1  0
 14  9  1  0
 20 16  1  0
  1 22  1  0
  1 23  1  0
  1 24  1  0
  2 25  1  0
  2 26  1  0
  3 27  1  0
  3 28  1  0
  5 29  1  0
  6 30  1  0
  7 31  1  0
  7 32  1  0
 10 33  1  0
 11 34  1  0
 12 35  1  0
 13 36  1  0
 15 37  1  0
 15 38  1  0
 17 39  1  0
 17 40  1  0
 18 41  1  0
 18 42  1  0
 19 43  1  0
 19 44  1  0
 20 45  1  0
 21 46  1  0
M  END
>  <Energy>  (539) 
61.413559983239196

>  <compound_id>  (539) 
1841

>  <target_id>  (539) 
1

>  <reference_id>  (539) 
189

>  <inspiration_ids>  (539) 
[25, 189]

>  <energy_score>  (539) 
-54.50138363903014

>  <distance_score>  (539) 
2.722998729471251

>  <path>  (539) 
/opt/xchem-fragalysis-2/maxwin/BulkDock/SCRATCH/505732/C1841-P189/C1841-P189.minimised.mol

>  <scratch_subdir>  (539) 
/opt/xchem-fragalysis-2/maxwin/BulkDock/SCRATCH/505732/C1841-P189

>  <fragmenstein_runtime>  (539) 
5.579055309295654

>  <fragmenstein_outcome>  (539) 
too moved

>  <fragmenstein_mode>  (539) 
expansion

>  <fragmenstein_error>  (539) 


$$$$
C1850-P26
     RDKit          3D

 32 34  0  0  0  0  0  0  0  0999 V2000
   14.9058    1.6574   17.2575 O   0  0  0  0  0  0  0  0  0  0  0  0
   14.4001    0.9767   16.3612 C   0  0  0  0  0  0  0  0  0  0  0  0
   14.9505   -0.3751   15.8988 C   0  0  0  0  0  0  0  0  0  0  0  0
   15.0787   -0.5423   14.3887 C   0  0  0  0  0  0  0  0  0  0  0  0
   16.2959    0.2935   14.0727 C   0  0  0  0  0  0  0  0  0  0  0  0
   17.1265    0.2632   15.3539 C   0  0  0  0  0  0  0  0  0  0  0  0
   16.3517   -0.5082   16.3342 N   0  0  0  0  0  0  0  0  0  0  0  0
   14.0108   -1.4076   16.4969 C   0  0  0  0  0  0  0  0  0  0  0  0
   12.6139   -1.1380   15.9780 C   0  0  0  0  0  0  0  0  0  0  0  0
   11.7898   -2.2322   15.7371 C   0  0  0  0  0  0  0  0  0  0  0  0
   10.5127   -2.0041   15.2623 C   0  0  0  0  0  0  0  0  0  0  0  0
   10.0064   -0.7101   15.1156 C   0  0  0  0  0  0  0  0  0  0  0  0
   10.8280    0.3884   15.3036 C   0  0  0  0  0  0  0  0  0  0  0  0
   12.1536    0.1961   15.6984 C   0  0  0  0  0  0  0  0  0  0  0  0
   13.0860    1.4041   15.7489 C   0  0  0  0  0  0  0  0  0  0  0  0
   12.5311    2.4531   16.5234 O   0  0  0  0  0  0  0  0  0  0  0  0
   13.3144    1.9566   14.4643 O   0  0  0  0  0  0  0  0  0  0  0  0
   14.2215   -0.2266   13.7903 H   0  0  0  0  0  0  0  0  0  0  0  0
   15.2802   -1.5908   14.1285 H   0  0  0  0  0  0  0  0  0  0  0  0
   16.0101    1.3243   13.8341 H   0  0  0  0  0  0  0  0  0  0  0  0
   16.8465   -0.1102   13.2171 H   0  0  0  0  0  0  0  0  0  0  0  0
   17.3122    1.2822   15.7121 H   0  0  0  0  0  0  0  0  0  0  0  0
   18.0971   -0.2143   15.1877 H   0  0  0  0  0  0  0  0  0  0  0  0
   16.4702   -0.0954   17.2642 H   0  0  0  0  0  0  0  0  0  0  0  0
   14.3357   -2.4216   16.2311 H   0  0  0  0  0  0  0  0  0  0  0  0
   13.9903   -1.3451   17.5925 H   0  0  0  0  0  0  0  0  0  0  0  0
   12.1386   -3.2525   15.8786 H   0  0  0  0  0  0  0  0  0  0  0  0
    9.8952   -2.8481   14.9696 H   0  0  0  0  0  0  0  0  0  0  0  0
    8.9917   -0.5777   14.7492 H   0  0  0  0  0  0  0  0  0  0  0  0
   10.4577    1.3898   15.0989 H   0  0  0  0  0  0  0  0  0  0  0  0
   13.2179    2.7179   17.1688 H   0  0  0  0  0  0  0  0  0  0  0  0
   13.7066    2.8268   14.6478 H   0  0  0  0  0  0  0  0  0  0  0  0
  1  2  2  0
  2  3  1  0
  3  4  1  0
  4  5  1  0
  5  6  1  0
  6  7  1  0
  3  8  1  0
  8  9  1  0
  9 10  2  0
 10 11  1  0
 11 12  2  0
 12 13  1  0
 13 14  2  0
 14 15  1  0
 15 16  1  0
 15 17  1  0
 15  2  1  0
  7  3  1  0
 14  9  1  0
  4 18  1  0
  4 19  1  0
  5 20  1  0
  5 21  1  0
  6 22  1  0
  6 23  1  0
  7 24  1  0
  8 25  1  0
  8 26  1  0
 10 27  1  0
 11 28  1  0
 12 29  1  0
 13 30  1  0
 16 31  1  0
 17 32  1  0
M  END
>  <Energy>  (540) 
86.194865113599661

>  <compound_id>  (540) 
1850

>  <target_id>  (540) 
1

>  <reference_id>  (540) 
26

>  <inspiration_ids>  (540) 
[26, 6]

>  <energy_score>  (540) 
-35.86875530178071

>  <distance_score>  (540) 
2.1856478631564444

>  <path>  (540) 
/opt/xchem-fragalysis-2/maxwin/BulkDock/SCRATCH/505732/C1850-P26/C1850-P26.minimised.mol

>  <scratch_subdir>  (540) 
/opt/xchem-fragalysis-2/maxwin/BulkDock/SCRATCH/505732/C1850-P26

>  <fragmenstein_runtime>  (540) 
2.923429250717163

>  <fragmenstein_outcome>  (540) 
too moved

>  <fragmenstein_mode>  (540) 
expansion

>  <fragmenstein_error>  (540) 


$$$$
C1850-P6
     RDKit          3D

 32 34  0  0  0  0  0  0  0  0999 V2000
   14.9053    1.6424   17.2530 O   0  0  0  0  0  0  0  0  0  0  0  0
   14.3801    0.9602   16.3690 C   0  0  0  0  0  0  0  0  0  0  0  0
   14.9115   -0.3985   15.9065 C   0  0  0  0  0  0  0  0  0  0  0  0
   15.0310   -0.5655   14.3956 C   0  0  0  0  0  0  0  0  0  0  0  0
   16.2589    0.2526   14.0751 C   0  0  0  0  0  0  0  0  0  0  0  0
   17.0952    0.2082   15.3520 C   0  0  0  0  0  0  0  0  0  0  0  0
   16.3123   -0.5490   16.3371 N   0  0  0  0  0  0  0  0  0  0  0  0
   13.9613   -1.4186   16.5105 C   0  0  0  0  0  0  0  0  0  0  0  0
   12.5677   -1.1366   15.9891 C   0  0  0  0  0  0  0  0  0  0  0  0
   11.7387   -2.2238   15.7302 C   0  0  0  0  0  0  0  0  0  0  0  0
   10.4720   -1.9851   15.2309 C   0  0  0  0  0  0  0  0  0  0  0  0
    9.9800   -0.6872   15.0744 C   0  0  0  0  0  0  0  0  0  0  0  0
   10.8036    0.4051   15.2919 C   0  0  0  0  0  0  0  0  0  0  0  0
   12.1205    0.2019   15.7113 C   0  0  0  0  0  0  0  0  0  0  0  0
   13.0639    1.4018   15.7712 C   0  0  0  0  0  0  0  0  0  0  0  0
   12.5217    2.4428   16.5676 O   0  0  0  0  0  0  0  0  0  0  0  0
   13.2862    1.9673   14.4906 O   0  0  0  0  0  0  0  0  0  0  0  0
   14.1763   -0.2344   13.8018 H   0  0  0  0  0  0  0  0  0  0  0  0
   15.2151   -1.6165   14.1329 H   0  0  0  0  0  0  0  0  0  0  0  0
   15.9867    1.2878   13.8398 H   0  0  0  0  0  0  0  0  0  0  0  0
   16.7993   -0.1574   13.2160 H   0  0  0  0  0  0  0  0  0  0  0  0
   17.3008    1.2239   15.7086 H   0  0  0  0  0  0  0  0  0  0  0  0
   18.0563   -0.2866   15.1812 H   0  0  0  0  0  0  0  0  0  0  0  0
   16.4409   -0.1356   17.2654 H   0  0  0  0  0  0  0  0  0  0  0  0
   14.2760   -2.4371   16.2494 H   0  0  0  0  0  0  0  0  0  0  0  0
   13.9417   -1.3509   17.6056 H   0  0  0  0  0  0  0  0  0  0  0  0
   12.0808   -3.2471   15.8682 H   0  0  0  0  0  0  0  0  0  0  0  0
    9.8533   -2.8225   14.9203 H   0  0  0  0  0  0  0  0  0  0  0  0
    8.9781   -0.5475   14.6777 H   0  0  0  0  0  0  0  0  0  0  0  0
   10.4459    1.4098   15.0810 H   0  0  0  0  0  0  0  0  0  0  0  0
   13.2334    2.7192   17.1806 H   0  0  0  0  0  0  0  0  0  0  0  0
   13.7339    2.8104   14.6727 H   0  0  0  0  0  0  0  0  0  0  0  0
  1  2  2  0
  2  3  1  0
  3  4  1  0
  4  5  1  0
  5  6  1  0
  6  7  1  0
  3  8  1  0
  8  9  1  0
  9 10  2  0
 10 11  1  0
 11 12  2  0
 12 13  1  0
 13 14  2  0
 14 15  1  0
 15 16  1  0
 15 17  1  0
 15  2  1  0
  7  3  1  0
 14  9  1  0
  4 18  1  0
  4 19  1  0
  5 20  1  0
  5 21  1  0
  6 22  1  0
  6 23  1  0
  7 24  1  0
  8 25  1  0
  8 26  1  0
 10 27  1  0
 11 28  1  0
 12 29  1  0
 13 30  1  0
 16 31  1  0
 17 32  1  0
M  END
>  <Energy>  (541) 
86.017910390529039

>  <compound_id>  (541) 
1850

>  <target_id>  (541) 
1

>  <reference_id>  (541) 
6

>  <inspiration_ids>  (541) 
[26, 6]

>  <energy_score>  (541) 
-36.04571002485201

>  <distance_score>  (541) 
2.1778988700454516

>  <path>  (541) 
/opt/xchem-fragalysis-2/maxwin/BulkDock/SCRATCH/505732/C1850-P6/C1850-P6.minimised.mol

>  <scratch_subdir>  (541) 
/opt/xchem-fragalysis-2/maxwin/BulkDock/SCRATCH/505732/C1850-P6

>  <fragmenstein_runtime>  (541) 
3.0517728328704834

>  <fragmenstein_outcome>  (541) 
too moved

>  <fragmenstein_mode>  (541) 
expansion

>  <fragmenstein_error>  (541) 


$$$$
C1852-P26
     RDKit          3D

 29 31  0  0  0  0  0  0  0  0999 V2000
   15.7609    1.7406   16.3689 O   0  0  0  0  0  0  0  0  0  0  0  0
   14.8553    1.0069   15.9695 C   0  0  0  0  0  0  0  0  0  0  0  0
   14.7014   -0.2343   16.5264 N   0  0  0  0  0  0  0  0  0  0  0  0
   13.7004   -1.1535   16.1893 C   0  0  0  0  0  0  0  0  0  0  0  0
   13.6999   -2.4545   16.7125 C   0  0  0  0  0  0  0  0  0  0  0  0
   15.1867   -3.1189   18.0133 I   0  0  0  0  0  0  0  0  0  0  0  0
   12.6840   -3.3495   16.3712 C   0  0  0  0  0  0  0  0  0  0  0  0
   11.6658   -2.9432   15.5128 C   0  0  0  0  0  0  0  0  0  0  0  0
   11.6489   -1.6434   15.0181 C   0  0  0  0  0  0  0  0  0  0  0  0
   12.6671   -0.7445   15.3444 C   0  0  0  0  0  0  0  0  0  0  0  0
   12.5903    0.6827   14.8782 C   0  0  0  0  0  0  0  0  0  0  0  0
   13.9643    1.3522   14.7485 C   0  0  0  0  0  0  0  0  0  0  0  0
   13.8101    2.8752   14.6060 C   0  0  0  0  0  0  0  0  0  0  0  0
   14.8506    3.2591   13.5750 C   0  0  0  0  0  0  0  0  0  0  0  0
   14.8251    2.0744   12.6376 C   0  0  0  0  0  0  0  0  0  0  0  0
   14.6750    0.9005   13.5035 N   0  0  0  0  0  0  0  0  0  0  0  0
   15.3892   -0.4919   17.2244 H   0  0  0  0  0  0  0  0  0  0  0  0
   12.6731   -4.3671   16.7546 H   0  0  0  0  0  0  0  0  0  0  0  0
   10.8804   -3.6369   15.2255 H   0  0  0  0  0  0  0  0  0  0  0  0
   10.8354   -1.3263   14.3716 H   0  0  0  0  0  0  0  0  0  0  0  0
   11.9807    1.2282   15.6117 H   0  0  0  0  0  0  0  0  0  0  0  0
   12.0572    0.7368   13.9194 H   0  0  0  0  0  0  0  0  0  0  0  0
   12.8169    3.1359   14.2176 H   0  0  0  0  0  0  0  0  0  0  0  0
   13.9555    3.4244   15.5419 H   0  0  0  0  0  0  0  0  0  0  0  0
   14.6076    4.1985   13.0703 H   0  0  0  0  0  0  0  0  0  0  0  0
   15.8367    3.3628   14.0428 H   0  0  0  0  0  0  0  0  0  0  0  0
   15.7299    2.0102   12.0258 H   0  0  0  0  0  0  0  0  0  0  0  0
   13.9641    2.1339   11.9619 H   0  0  0  0  0  0  0  0  0  0  0  0
   15.6109    0.5871   13.7731 H   0  0  0  0  0  0  0  0  0  0  0  0
  1  2  2  0
  2  3  1  0
  3  4  1  0
  4  5  2  0
  5  6  1  0
  5  7  1  0
  7  8  2  0
  8  9  1  0
  9 10  2  0
 10 11  1  0
 11 12  1  0
 12 13  1  0
 13 14  1  0
 14 15  1  0
 15 16  1  0
 12  2  1  0
 10  4  1  0
 16 12  1  0
  3 17  1  0
  7 18  1  0
  8 19  1  0
  9 20  1  0
 11 21  1  0
 11 22  1  0
 13 23  1  0
 13 24  1  0
 14 25  1  0
 14 26  1  0
 15 27  1  0
 15 28  1  0
 16 29  1  0
M  END
>  <Energy>  (542) 
59.688691755989304

>  <compound_id>  (542) 
1852

>  <target_id>  (542) 
1

>  <reference_id>  (542) 
26

>  <inspiration_ids>  (542) 
[26, 10]

>  <energy_score>  (542) 
-26.159612076164166

>  <distance_score>  (542) 
0.34756744051616045

>  <path>  (542) 
/opt/xchem-fragalysis-2/maxwin/BulkDock/SCRATCH/505732/C1852-P26/C1852-P26.minimised.mol

>  <scratch_subdir>  (542) 
/opt/xchem-fragalysis-2/maxwin/BulkDock/SCRATCH/505732/C1852-P26

>  <fragmenstein_runtime>  (542) 
1.0180234909057617

>  <fragmenstein_outcome>  (542) 
acceptable

>  <fragmenstein_mode>  (542) 
expansion

>  <fragmenstein_error>  (542) 


$$$$
C1852-P10
     RDKit          3D

 29 31  0  0  0  0  0  0  0  0999 V2000
   15.7397    1.7603   16.3787 O   0  0  0  0  0  0  0  0  0  0  0  0
   14.8644    1.0082   15.9481 C   0  0  0  0  0  0  0  0  0  0  0  0
   14.7312   -0.2459   16.4814 N   0  0  0  0  0  0  0  0  0  0  0  0
   13.7355   -1.1682   16.1352 C   0  0  0  0  0  0  0  0  0  0  0  0
   13.7413   -2.4733   16.6471 C   0  0  0  0  0  0  0  0  0  0  0  0
   15.2408   -3.1572   17.9232 I   0  0  0  0  0  0  0  0  0  0  0  0
   12.7183   -3.3624   16.3138 C   0  0  0  0  0  0  0  0  0  0  0  0
   11.6927   -2.9520   15.4666 C   0  0  0  0  0  0  0  0  0  0  0  0
   11.6736   -1.6508   14.9778 C   0  0  0  0  0  0  0  0  0  0  0  0
   12.6950   -0.7543   15.3009 C   0  0  0  0  0  0  0  0  0  0  0  0
   12.6105    0.6746   14.8428 C   0  0  0  0  0  0  0  0  0  0  0  0
   13.9808    1.3514   14.7203 C   0  0  0  0  0  0  0  0  0  0  0  0
   13.8185    2.8727   14.5781 C   0  0  0  0  0  0  0  0  0  0  0  0
   14.8943    3.2671   13.5884 C   0  0  0  0  0  0  0  0  0  0  0  0
   14.9059    2.0909   12.6397 C   0  0  0  0  0  0  0  0  0  0  0  0
   14.6983    0.9071   13.4788 N   0  0  0  0  0  0  0  0  0  0  0  0
   15.4163   -0.5066   17.1811 H   0  0  0  0  0  0  0  0  0  0  0  0
   12.7037   -4.3776   16.7023 H   0  0  0  0  0  0  0  0  0  0  0  0
   10.9007   -3.6424   15.1886 H   0  0  0  0  0  0  0  0  0  0  0  0
   10.8526   -1.3293   14.3435 H   0  0  0  0  0  0  0  0  0  0  0  0
   11.9962    1.2132   15.5775 H   0  0  0  0  0  0  0  0  0  0  0  0
   12.0799    0.7307   13.8828 H   0  0  0  0  0  0  0  0  0  0  0  0
   12.8383    3.1264   14.1537 H   0  0  0  0  0  0  0  0  0  0  0  0
   13.9244    3.4188   15.5210 H   0  0  0  0  0  0  0  0  0  0  0  0
   14.6678    4.2106   13.0836 H   0  0  0  0  0  0  0  0  0  0  0  0
   15.8630    3.3685   14.0916 H   0  0  0  0  0  0  0  0  0  0  0  0
   15.8395    2.0251   12.0730 H   0  0  0  0  0  0  0  0  0  0  0  0
   14.0810    2.1675   11.9219 H   0  0  0  0  0  0  0  0  0  0  0  0
   15.6139    0.5424   13.7523 H   0  0  0  0  0  0  0  0  0  0  0  0
  1  2  2  0
  2  3  1  0
  3  4  1  0
  4  5  2  0
  5  6  1  0
  5  7  1  0
  7  8  2  0
  8  9  1  0
  9 10  2  0
 10 11  1  0
 11 12  1  0
 12 13  1  0
 13 14  1  0
 14 15  1  0
 15 16  1  0
 12  2  1  0
 10  4  1  0
 16 12  1  0
  3 17  1  0
  7 18  1  0
  8 19  1  0
  9 20  1  0
 11 21  1  0
 11 22  1  0
 13 23  1  0
 13 24  1  0
 14 25  1  0
 14 26  1  0
 15 27  1  0
 15 28  1  0
 16 29  1  0
M  END
>  <Energy>  (543) 
59.697560513681346

>  <compound_id>  (543) 
1852

>  <target_id>  (543) 
1

>  <reference_id>  (543) 
10

>  <inspiration_ids>  (543) 
[26, 10]

>  <energy_score>  (543) 
-26.150743318471854

>  <distance_score>  (543) 
0.3372707278329846

>  <path>  (543) 
/opt/xchem-fragalysis-2/maxwin/BulkDock/SCRATCH/505732/C1852-P10/C1852-P10.minimised.mol

>  <scratch_subdir>  (543) 
/opt/xchem-fragalysis-2/maxwin/BulkDock/SCRATCH/505732/C1852-P10

>  <fragmenstein_runtime>  (543) 
1.1137800216674805

>  <fragmenstein_outcome>  (543) 
acceptable

>  <fragmenstein_mode>  (543) 
expansion

>  <fragmenstein_error>  (543) 


$$$$
C1854-P26
     RDKit          3D

 35 37  0  0  0  0  0  0  0  0999 V2000
   10.4381    1.0169   13.0024 O   0  0  0  0  0  0  0  0  0  0  0  0
   10.5880    0.6177   14.1493 C   0  0  0  0  0  0  0  0  0  0  0  0
    9.7963   -0.3372   14.6766 O   0  0  0  0  0  0  0  0  0  0  0  0
   11.6847    1.0411   15.0866 C   0  0  0  0  0  0  0  0  0  0  0  0
   13.0032    0.3740   14.6428 C   0  0  0  0  0  0  0  0  0  0  0  0
   13.1768   -0.9307   15.4249 C   0  0  0  0  0  0  0  0  0  0  0  0
   12.3667   -2.0503   15.1639 C   0  0  0  0  0  0  0  0  0  0  0  0
   12.4366   -3.1831   15.9777 C   0  0  0  0  0  0  0  0  0  0  0  0
   13.3644   -3.2321   17.0066 C   0  0  0  0  0  0  0  0  0  0  0  0
   13.4584   -4.3202   17.7786 F   0  0  0  0  0  0  0  0  0  0  0  0
   14.1951   -2.1559   17.2643 C   0  0  0  0  0  0  0  0  0  0  0  0
   14.0871   -1.0066   16.4832 C   0  0  0  0  0  0  0  0  0  0  0  0
   14.8805    0.0829   16.8144 N   0  0  0  0  0  0  0  0  0  0  0  0
   14.9689    1.2356   16.0976 C   0  0  0  0  0  0  0  0  0  0  0  0
   15.6997    2.1349   16.5163 O   0  0  0  0  0  0  0  0  0  0  0  0
   14.2676    1.2949   14.7217 C   0  0  0  0  0  0  0  0  0  0  0  0
   14.1024    2.7606   14.2901 C   0  0  0  0  0  0  0  0  0  0  0  0
   14.0550    2.6995   12.7830 C   0  0  0  0  0  0  0  0  0  0  0  0
   14.9652    1.5350   12.4380 C   0  0  0  0  0  0  0  0  0  0  0  0
   15.2636    0.8235   13.6926 N   0  0  0  0  0  0  0  0  0  0  0  0
    9.4163   -0.8069   13.8846 H   0  0  0  0  0  0  0  0  0  0  0  0
   11.6877    2.1298   15.0432 H   0  0  0  0  0  0  0  0  0  0  0  0
   11.4103    0.7863   16.1138 H   0  0  0  0  0  0  0  0  0  0  0  0
   12.8920    0.0723   13.5903 H   0  0  0  0  0  0  0  0  0  0  0  0
   11.6640   -2.0505   14.3346 H   0  0  0  0  0  0  0  0  0  0  0  0
   11.7810   -4.0307   15.8122 H   0  0  0  0  0  0  0  0  0  0  0  0
   14.9013   -2.2242   18.0853 H   0  0  0  0  0  0  0  0  0  0  0  0
   15.4677    0.0525   17.6390 H   0  0  0  0  0  0  0  0  0  0  0  0
   13.2459    3.2834   14.7169 H   0  0  0  0  0  0  0  0  0  0  0  0
   14.9773    3.3620   14.5743 H   0  0  0  0  0  0  0  0  0  0  0  0
   13.0330    2.4951   12.4437 H   0  0  0  0  0  0  0  0  0  0  0  0
   14.3851    3.6363   12.3239 H   0  0  0  0  0  0  0  0  0  0  0  0
   15.8966    1.8842   11.9792 H   0  0  0  0  0  0  0  0  0  0  0  0
   14.4804    0.8601   11.7247 H   0  0  0  0  0  0  0  0  0  0  0  0
   16.1909    1.1300   14.0051 H   0  0  0  0  0  0  0  0  0  0  0  0
  1  2  2  0
  2  3  1  0
  2  4  1  0
  4  5  1  0
  5  6  1  0
  6  7  2  0
  7  8  1  0
  8  9  2  0
  9 10  1  0
  9 11  1  0
 11 12  2  0
 12 13  1  0
 13 14  1  0
 14 15  2  0
 14 16  1  0
 16 17  1  0
 17 18  1  0
 18 19  1  0
 19 20  1  0
 16  5  1  0
 12  6  1  0
 20 16  1  0
  3 21  1  0
  4 22  1  0
  4 23  1  0
  5 24  1  0
  7 25  1  0
  8 26  1  0
 11 27  1  0
 13 28  1  0
 17 29  1  0
 17 30  1  0
 18 31  1  0
 18 32  1  0
 19 33  1  0
 19 34  1  0
 20 35  1  0
M  END
>  <Energy>  (544) 
25.751236499401642

>  <compound_id>  (544) 
1854

>  <target_id>  (544) 
1

>  <reference_id>  (544) 
26

>  <inspiration_ids>  (544) 
[26, 15]

>  <energy_score>  (544) 
-36.686357222563345

>  <distance_score>  (544) 
0.5708053270986655

>  <path>  (544) 
/opt/xchem-fragalysis-2/maxwin/BulkDock/SCRATCH/505732/C1854-P26/C1854-P26.minimised.mol

>  <scratch_subdir>  (544) 
/opt/xchem-fragalysis-2/maxwin/BulkDock/SCRATCH/505732/C1854-P26

>  <fragmenstein_runtime>  (544) 
1.7089698314666748

>  <fragmenstein_outcome>  (544) 
acceptable

>  <fragmenstein_mode>  (544) 
expansion

>  <fragmenstein_error>  (544) 


$$$$
C1854-P15
     RDKit          3D

 35 37  0  0  0  0  0  0  0  0999 V2000
    9.5607   -0.3481   16.3175 O   0  0  0  0  0  0  0  0  0  0  0  0
    9.8992    0.7972   16.0706 C   0  0  0  0  0  0  0  0  0  0  0  0
    8.9955    1.7995   16.1696 O   0  0  0  0  0  0  0  0  0  0  0  0
   11.2862    1.3335   15.7403 C   0  0  0  0  0  0  0  0  0  0  0  0
   12.2465    0.4605   14.8905 C   0  0  0  0  0  0  0  0  0  0  0  0
   12.6134   -0.8686   15.5432 C   0  0  0  0  0  0  0  0  0  0  0  0
   11.8345   -2.0177   15.3449 C   0  0  0  0  0  0  0  0  0  0  0  0
   12.1508   -3.2083   16.0052 C   0  0  0  0  0  0  0  0  0  0  0  0
   13.2513   -3.2603   16.8507 C   0  0  0  0  0  0  0  0  0  0  0  0
   13.5526   -4.3902   17.5009 F   0  0  0  0  0  0  0  0  0  0  0  0
   14.0529   -2.1477   17.0393 C   0  0  0  0  0  0  0  0  0  0  0  0
   13.7415   -0.9662   16.3704 C   0  0  0  0  0  0  0  0  0  0  0  0
   14.5835    0.1275   16.5376 N   0  0  0  0  0  0  0  0  0  0  0  0
   14.5286    1.2662   15.7853 C   0  0  0  0  0  0  0  0  0  0  0  0
   15.3014    2.1884   16.0442 O   0  0  0  0  0  0  0  0  0  0  0  0
   13.5618    1.2497   14.5584 C   0  0  0  0  0  0  0  0  0  0  0  0
   13.3260    2.6719   14.0354 C   0  0  0  0  0  0  0  0  0  0  0  0
   14.5348    2.9946   13.1656 C   0  0  0  0  0  0  0  0  0  0  0  0
   15.1958    1.6559   12.8865 C   0  0  0  0  0  0  0  0  0  0  0  0
   14.2626    0.6456   13.3873 N   0  0  0  0  0  0  0  0  0  0  0  0
    8.1411    1.4222   16.4979 H   0  0  0  0  0  0  0  0  0  0  0  0
   11.0996    2.2632   15.1894 H   0  0  0  0  0  0  0  0  0  0  0  0
   11.7691    1.6257   16.6775 H   0  0  0  0  0  0  0  0  0  0  0  0
   11.7314    0.2376   13.9444 H   0  0  0  0  0  0  0  0  0  0  0  0
   10.9642   -1.9923   14.6912 H   0  0  0  0  0  0  0  0  0  0  0  0
   11.5372   -4.0937   15.8773 H   0  0  0  0  0  0  0  0  0  0  0  0
   14.9140   -2.2284   17.6938 H   0  0  0  0  0  0  0  0  0  0  0  0
   15.3221    0.1035   17.2305 H   0  0  0  0  0  0  0  0  0  0  0  0
   12.4286    2.7127   13.4043 H   0  0  0  0  0  0  0  0  0  0  0  0
   13.2119    3.4141   14.8329 H   0  0  0  0  0  0  0  0  0  0  0  0
   14.2195    3.4909   12.2414 H   0  0  0  0  0  0  0  0  0  0  0  0
   15.2266    3.6662   13.6858 H   0  0  0  0  0  0  0  0  0  0  0  0
   16.1571    1.5858   13.4081 H   0  0  0  0  0  0  0  0  0  0  0  0
   15.3848    1.5125   11.8184 H   0  0  0  0  0  0  0  0  0  0  0  0
   14.7623   -0.2003   13.6668 H   0  0  0  0  0  0  0  0  0  0  0  0
  1  2  2  0
  2  3  1  0
  2  4  1  0
  4  5  1  0
  5  6  1  0
  6  7  2  0
  7  8  1  0
  8  9  2  0
  9 10  1  0
  9 11  1  0
 11 12  2  0
 12 13  1  0
 13 14  1  0
 14 15  2  0
 14 16  1  0
 16 17  1  0
 17 18  1  0
 18 19  1  0
 19 20  1  0
 16  5  1  0
 12  6  1  0
 20 16  1  0
  3 21  1  0
  4 22  1  0
  4 23  1  0
  5 24  1  0
  7 25  1  0
  8 26  1  0
 11 27  1  0
 13 28  1  0
 17 29  1  0
 17 30  1  0
 18 31  1  0
 18 32  1  0
 19 33  1  0
 19 34  1  0
 20 35  1  0
M  END
>  <Energy>  (545) 
17.780854039606893

>  <compound_id>  (545) 
1854

>  <target_id>  (545) 
1

>  <reference_id>  (545) 
15

>  <inspiration_ids>  (545) 
[26, 15]

>  <energy_score>  (545) 
-44.656739682359074

>  <distance_score>  (545) 
0.5806490196592324

>  <path>  (545) 
/opt/xchem-fragalysis-2/maxwin/BulkDock/SCRATCH/505732/C1854-P15/C1854-P15.minimised.mol

>  <scratch_subdir>  (545) 
/opt/xchem-fragalysis-2/maxwin/BulkDock/SCRATCH/505732/C1854-P15

>  <fragmenstein_runtime>  (545) 
1.6786911487579346

>  <fragmenstein_outcome>  (545) 
acceptable

>  <fragmenstein_mode>  (545) 
expansion

>  <fragmenstein_error>  (545) 


$$$$
C1859-P26
     RDKit          3D

 56 61  0  0  0  0  0  0  0  0999 V2000
   18.3854   -3.4439   13.3453 C   0  0  0  0  0  0  0  0  0  0  0  0
   17.2883   -2.4897   13.3558 N   0  0  0  0  0  0  0  0  0  0  0  0
   16.0494   -3.0795   13.9223 N   0  0  0  0  0  0  0  0  0  0  0  0
   15.0170   -2.0770   13.6082 C   0  0  0  0  0  0  0  0  0  0  0  0
   13.5229   -2.2781   13.1915 C   0  0  0  0  0  0  0  0  0  0  0  0
   12.4392   -2.5287   14.2631 C   0  0  0  0  0  0  0  0  0  0  0  0
   12.9866   -2.7048   15.6662 C   0  0  0  0  0  0  0  0  0  0  0  0
   14.0431   -1.6684   15.8750 C   0  0  0  0  0  0  0  0  0  0  0  0
   14.9217   -1.3146   14.9064 C   0  0  0  0  0  0  0  0  0  0  0  0
   15.8493   -0.3395   15.1448 N   0  0  0  0  0  0  0  0  0  0  0  0
   15.7252    0.5725   16.1536 C   0  0  0  0  0  0  0  0  0  0  0  0
   16.6349    1.3389   16.4511 O   0  0  0  0  0  0  0  0  0  0  0  0
   14.3256    0.5511   16.8087 C   0  0  0  0  0  0  0  0  0  0  0  0
   13.2550    1.1248   15.8467 C   0  0  0  0  0  0  0  0  0  0  0  0
   12.9287    2.4975   16.3912 C   0  0  0  0  0  0  0  0  0  0  0  0
   13.9788    2.7505   17.4544 C   0  0  0  0  0  0  0  0  0  0  0  0
   14.2855    1.4227   17.9885 N   0  0  0  0  0  0  0  0  0  0  0  0
   14.0196   -0.9017   17.1543 C   0  0  0  0  0  0  0  0  0  0  0  0
   15.5660   -1.4371   12.4126 N   0  0  0  0  0  0  0  0  0  0  0  0
   16.8020   -2.1206   12.0423 C   0  0  0  0  0  0  0  0  0  0  0  0
   17.8647   -1.0587   11.0227 S   0  0  0  0  0  0  0  0  0  0  0  0
   17.3036    0.4673   11.6310 C   0  0  0  0  0  0  0  0  0  0  0  0
   17.9106    1.0438   12.6826 C   0  0  0  0  0  0  0  0  0  0  0  0
   17.2241    2.1006   13.4153 C   0  0  0  0  0  0  0  0  0  0  0  0
   15.9391    2.4104   13.1531 C   0  0  0  0  0  0  0  0  0  0  0  0
   15.3049    1.8324   12.0253 C   0  0  0  0  0  0  0  0  0  0  0  0
   14.1058    1.9719   11.5046 N   0  0  0  0  0  0  0  0  0  0  0  0
   14.0840    1.2904   10.3126 N   0  0  0  0  0  0  0  0  0  0  0  0
   15.2474    0.6979   10.1699 C   0  0  0  0  0  0  0  0  0  0  0  0
   16.0465    0.9535   11.2528 N   0  0  0  0  0  0  0  0  0  0  0  0
   18.5491   -3.8554   14.3477 H   0  0  0  0  0  0  0  0  0  0  0  0
   19.3154   -2.9370   13.0650 H   0  0  0  0  0  0  0  0  0  0  0  0
   18.2499   -4.2753   12.6508 H   0  0  0  0  0  0  0  0  0  0  0  0
   16.1329   -3.2191   14.9295 H   0  0  0  0  0  0  0  0  0  0  0  0
   13.4702   -3.0302   12.4027 H   0  0  0  0  0  0  0  0  0  0  0  0
   13.1863   -1.3506   12.7026 H   0  0  0  0  0  0  0  0  0  0  0  0
   11.7627   -1.6616   14.2653 H   0  0  0  0  0  0  0  0  0  0  0  0
   11.8012   -3.3722   13.9811 H   0  0  0  0  0  0  0  0  0  0  0  0
   13.4063   -3.6990   15.8433 H   0  0  0  0  0  0  0  0  0  0  0  0
   12.1596   -2.5884   16.3751 H   0  0  0  0  0  0  0  0  0  0  0  0
   16.6650   -0.3101   14.5430 H   0  0  0  0  0  0  0  0  0  0  0  0
   13.6132    1.2219   14.8163 H   0  0  0  0  0  0  0  0  0  0  0  0
   12.3333    0.5312   15.8240 H   0  0  0  0  0  0  0  0  0  0  0  0
   12.9431    3.2659   15.6118 H   0  0  0  0  0  0  0  0  0  0  0  0
   11.9273    2.4948   16.8371 H   0  0  0  0  0  0  0  0  0  0  0  0
   13.6073    3.4152   18.2399 H   0  0  0  0  0  0  0  0  0  0  0  0
   14.8688    3.2152   17.0147 H   0  0  0  0  0  0  0  0  0  0  0  0
   15.2133    1.4502   18.4202 H   0  0  0  0  0  0  0  0  0  0  0  0
   14.7300   -1.3294   17.8713 H   0  0  0  0  0  0  0  0  0  0  0  0
   13.0245   -0.9504   17.5887 H   0  0  0  0  0  0  0  0  0  0  0  0
   14.9348   -1.5692   11.6296 H   0  0  0  0  0  0  0  0  0  0  0  0
   16.5670   -2.9990   11.4277 H   0  0  0  0  0  0  0  0  0  0  0  0
   18.8409    0.6692   13.1003 H   0  0  0  0  0  0  0  0  0  0  0  0
   17.7397    2.5511   14.2603 H   0  0  0  0  0  0  0  0  0  0  0  0
   15.4004    3.1425   13.7437 H   0  0  0  0  0  0  0  0  0  0  0  0
   15.5519    0.0818    9.3378 H   0  0  0  0  0  0  0  0  0  0  0  0
  1  2  1  0
  2  3  1  0
  3  4  1  0
  4  5  1  0
  5  6  1  0
  6  7  1  0
  7  8  1  0
  8  9  2  0
  9 10  1  0
 10 11  1  0
 11 12  2  0
 11 13  1  0
 13 14  1  0
 14 15  1  0
 15 16  1  0
 16 17  1  0
 13 18  1  0
  4 19  1  0
 19 20  1  0
 20 21  1  0
 21 22  1  0
 22 23  2  0
 23 24  1  0
 24 25  2  0
 25 26  1  0
 26 27  2  0
 27 28  1  0
 28 29  2  0
 29 30  1  0
 20  2  1  0
 30 22  1  0
  9  4  1  0
 17 13  1  0
 30 26  1  0
 18  8  1  0
  1 31  1  0
  1 32  1  0
  1 33  1  0
  3 34  1  0
  5 35  1  0
  5 36  1  0
  6 37  1  0
  6 38  1  0
  7 39  1  0
  7 40  1  0
 10 41  1  0
 14 42  1  0
 14 43  1  0
 15 44  1  0
 15 45  1  0
 16 46  1  0
 16 47  1  0
 17 48  1  0
 18 49  1  0
 18 50  1  0
 19 51  1  0
 20 52  1  0
 23 53  1  0
 24 54  1  0
 25 55  1  0
 29 56  1  0
M  END
>  <Energy>  (546) 
87.870751859982292

>  <compound_id>  (546) 
1859

>  <target_id>  (546) 
1

>  <reference_id>  (546) 
26

>  <inspiration_ids>  (546) 
[26, 31]

>  <energy_score>  (546) 
-70.24689781933293

>  <distance_score>  (546) 
2.6159696738789378

>  <path>  (546) 
/opt/xchem-fragalysis-2/maxwin/BulkDock/SCRATCH/505732/C1859-P26/C1859-P26.minimised.mol

>  <scratch_subdir>  (546) 
/opt/xchem-fragalysis-2/maxwin/BulkDock/SCRATCH/505732/C1859-P26

>  <fragmenstein_runtime>  (546) 
3.382850408554077

>  <fragmenstein_outcome>  (546) 
too moved

>  <fragmenstein_mode>  (546) 
expansion

>  <fragmenstein_error>  (546) 


$$$$
C1859-P31
     RDKit          3D

 56 61  0  0  0  0  0  0  0  0999 V2000
   18.6325   -2.4711   10.7739 C   0  0  0  0  0  0  0  0  0  0  0  0
   17.1905   -2.4285   10.5361 N   0  0  0  0  0  0  0  0  0  0  0  0
   16.4850   -3.1344   11.5788 N   0  0  0  0  0  0  0  0  0  0  0  0
   15.7379   -2.2141   12.4295 C   0  0  0  0  0  0  0  0  0  0  0  0
   14.2210   -2.3249   12.2124 C   0  0  0  0  0  0  0  0  0  0  0  0
   13.3364   -1.6502   13.2789 C   0  0  0  0  0  0  0  0  0  0  0  0
   13.6594   -2.0410   14.7107 C   0  0  0  0  0  0  0  0  0  0  0  0
   15.1357   -2.2391   14.9125 C   0  0  0  0  0  0  0  0  0  0  0  0
   16.0582   -2.2864   13.9174 C   0  0  0  0  0  0  0  0  0  0  0  0
   17.3973   -2.1196   14.2482 N   0  0  0  0  0  0  0  0  0  0  0  0
   17.7811   -1.3415   15.3176 C   0  0  0  0  0  0  0  0  0  0  0  0
   18.9386   -0.9663   15.4711 O   0  0  0  0  0  0  0  0  0  0  0  0
   16.6207   -0.8210   16.1763 C   0  0  0  0  0  0  0  0  0  0  0  0
   16.0963    0.4193   15.3952 C   0  0  0  0  0  0  0  0  0  0  0  0
   16.5773    1.6249   16.1779 C   0  0  0  0  0  0  0  0  0  0  0  0
   17.4808    1.0746   17.2641 C   0  0  0  0  0  0  0  0  0  0  0  0
   17.1315   -0.3277   17.4747 N   0  0  0  0  0  0  0  0  0  0  0  0
   15.6463   -2.0086   16.3059 C   0  0  0  0  0  0  0  0  0  0  0  0
   16.2107   -0.9252   11.9639 N   0  0  0  0  0  0  0  0  0  0  0  0
   16.5693   -1.1256   10.5684 C   0  0  0  0  0  0  0  0  0  0  0  0
   17.4833    0.2422    9.8485 S   0  0  0  0  0  0  0  0  0  0  0  0
   16.8754    1.4851   10.8920 C   0  0  0  0  0  0  0  0  0  0  0  0
   17.6642    2.0059   11.8468 C   0  0  0  0  0  0  0  0  0  0  0  0
   17.0672    2.8145   12.9005 C   0  0  0  0  0  0  0  0  0  0  0  0
   15.7300    2.8690   13.0689 C   0  0  0  0  0  0  0  0  0  0  0  0
   14.8926    2.2871   12.0889 C   0  0  0  0  0  0  0  0  0  0  0  0
   13.5907    2.1601   11.9808 N   0  0  0  0  0  0  0  0  0  0  0  0
   13.3219    1.7034   10.7155 N   0  0  0  0  0  0  0  0  0  0  0  0
   14.4699    1.4938   10.1127 C   0  0  0  0  0  0  0  0  0  0  0  0
   15.5026    1.7399   10.9720 N   0  0  0  0  0  0  0  0  0  0  0  0
   18.9505   -1.8953   11.6486 H   0  0  0  0  0  0  0  0  0  0  0  0
   19.1772   -2.0968    9.9003 H   0  0  0  0  0  0  0  0  0  0  0  0
   18.9693   -3.5063   10.9084 H   0  0  0  0  0  0  0  0  0  0  0  0
   17.0590   -3.7153   12.1863 H   0  0  0  0  0  0  0  0  0  0  0  0
   13.9426   -3.3743   12.1247 H   0  0  0  0  0  0  0  0  0  0  0  0
   13.9733   -1.8733   11.2498 H   0  0  0  0  0  0  0  0  0  0  0  0
   13.4368   -0.5623   13.1763 H   0  0  0  0  0  0  0  0  0  0  0  0
   12.2824   -1.8785   13.0954 H   0  0  0  0  0  0  0  0  0  0  0  0
   13.0901   -2.9163   15.0342 H   0  0  0  0  0  0  0  0  0  0  0  0
   13.3037   -1.2260   15.3514 H   0  0  0  0  0  0  0  0  0  0  0  0
   18.0840   -2.1615   13.5083 H   0  0  0  0  0  0  0  0  0  0  0  0
   16.5294    0.4785   14.3930 H   0  0  0  0  0  0  0  0  0  0  0  0
   15.0131    0.4607   15.2526 H   0  0  0  0  0  0  0  0  0  0  0  0
   15.7461    2.2030   16.5905 H   0  0  0  0  0  0  0  0  0  0  0  0
   17.1487    2.3178   15.5592 H   0  0  0  0  0  0  0  0  0  0  0  0
   17.3786    1.6424   18.1941 H   0  0  0  0  0  0  0  0  0  0  0  0
   18.5286    1.1571   16.9515 H   0  0  0  0  0  0  0  0  0  0  0  0
   17.9717   -0.8526   17.7226 H   0  0  0  0  0  0  0  0  0  0  0  0
   16.1548   -2.9118   16.6706 H   0  0  0  0  0  0  0  0  0  0  0  0
   14.8256   -1.8341   17.0042 H   0  0  0  0  0  0  0  0  0  0  0  0
   15.4193   -0.3033   12.0448 H   0  0  0  0  0  0  0  0  0  0  0  0
   15.6529   -1.1887    9.9680 H   0  0  0  0  0  0  0  0  0  0  0  0
   18.7233    1.7767   11.9247 H   0  0  0  0  0  0  0  0  0  0  0  0
   17.7416    3.2996   13.6000 H   0  0  0  0  0  0  0  0  0  0  0  0
   15.2780    3.4144   13.8896 H   0  0  0  0  0  0  0  0  0  0  0  0
   14.6072    1.1550    9.0962 H   0  0  0  0  0  0  0  0  0  0  0  0
  1  2  1  0
  2  3  1  0
  3  4  1  0
  4  5  1  0
  5  6  1  0
  6  7  1  0
  7  8  1  0
  8  9  2  0
  9 10  1  0
 10 11  1  0
 11 12  2  0
 11 13  1  0
 13 14  1  0
 14 15  1  0
 15 16  1  0
 16 17  1  0
 13 18  1  0
  4 19  1  0
 19 20  1  0
 20 21  1  0
 21 22  1  0
 22 23  2  0
 23 24  1  0
 24 25  2  0
 25 26  1  0
 26 27  2  0
 27 28  1  0
 28 29  2  0
 29 30  1  0
 20  2  1  0
 30 22  1  0
  9  4  1  0
 17 13  1  0
 30 26  1  0
 18  8  1  0
  1 31  1  0
  1 32  1  0
  1 33  1  0
  3 34  1  0
  5 35  1  0
  5 36  1  0
  6 37  1  0
  6 38  1  0
  7 39  1  0
  7 40  1  0
 10 41  1  0
 14 42  1  0
 14 43  1  0
 15 44  1  0
 15 45  1  0
 16 46  1  0
 16 47  1  0
 17 48  1  0
 18 49  1  0
 18 50  1  0
 19 51  1  0
 20 52  1  0
 23 53  1  0
 24 54  1  0
 25 55  1  0
 29 56  1  0
M  END
>  <Energy>  (547) 
87.715671755481409

>  <compound_id>  (547) 
1859

>  <target_id>  (547) 
1

>  <reference_id>  (547) 
31

>  <inspiration_ids>  (547) 
[26, 31]

>  <energy_score>  (547) 
-70.40197792383523

>  <distance_score>  (547) 
3.334559009459066

>  <path>  (547) 
/opt/xchem-fragalysis-2/maxwin/BulkDock/SCRATCH/505732/C1859-P31/C1859-P31.minimised.mol

>  <scratch_subdir>  (547) 
/opt/xchem-fragalysis-2/maxwin/BulkDock/SCRATCH/505732/C1859-P31

>  <fragmenstein_runtime>  (547) 
3.3194572925567627

>  <fragmenstein_outcome>  (547) 
too moved

>  <fragmenstein_mode>  (547) 
expansion

>  <fragmenstein_error>  (547) 


$$$$
C1860-P26
     RDKit          3D

 52 55  0  0  0  0  0  0  0  0999 V2000
   13.9122   -4.1827   16.9982 C   0  0  0  0  0  0  0  0  0  0  0  0
   13.5700   -2.8086   16.5451 C   0  0  0  0  0  0  0  0  0  0  0  0
   12.4054   -2.6352   15.7770 C   0  0  0  0  0  0  0  0  0  0  0  0
   12.0966   -1.3931   15.2565 C   0  0  0  0  0  0  0  0  0  0  0  0
   12.9580   -0.3234   15.5011 C   0  0  0  0  0  0  0  0  0  0  0  0
   14.1050   -0.4855   16.3089 C   0  0  0  0  0  0  0  0  0  0  0  0
   14.4216   -1.7303   16.8578 C   0  0  0  0  0  0  0  0  0  0  0  0
   15.5680   -2.0234   17.6346 N   0  0  0  0  0  0  0  0  0  0  0  0
   16.5316   -1.0768   18.4158 C   0  0  0  0  0  0  0  0  0  0  0  0
   16.5667    0.0928   18.4706 O   0  0  0  0  0  0  0  0  0  0  0  0
   17.5932   -1.9128   19.0886 C   0  0  0  0  0  0  0  0  0  0  0  0
   16.8925   -3.0193   20.2621 S   0  0  0  0  0  0  0  0  0  0  0  0
   16.2070   -4.0562   19.5056 O   0  0  0  0  0  0  0  0  0  0  0  0
   16.2073   -2.2681   21.2919 O   0  0  0  0  0  0  0  0  0  0  0  0
   18.3177   -3.7680   21.0141 C   0  0  0  0  0  0  0  0  0  0  0  0
   18.9423   -3.1228   22.0854 C   0  0  0  0  0  0  0  0  0  0  0  0
   20.0594   -3.7088   22.6794 C   0  0  0  0  0  0  0  0  0  0  0  0
   20.5387   -4.9333   22.2106 C   0  0  0  0  0  0  0  0  0  0  0  0
   19.8995   -5.5808   21.1517 C   0  0  0  0  0  0  0  0  0  0  0  0
   18.7815   -5.0023   20.5510 C   0  0  0  0  0  0  0  0  0  0  0  0
   14.9279    0.6220   16.4995 N   0  0  0  0  0  0  0  0  0  0  0  0
   14.8827    1.7793   15.7810 C   0  0  0  0  0  0  0  0  0  0  0  0
   15.6558    2.6949   16.0611 O   0  0  0  0  0  0  0  0  0  0  0  0
   13.9142    1.8077   14.5797 C   0  0  0  0  0  0  0  0  0  0  0  0
   13.5869    3.2533   14.1878 C   0  0  0  0  0  0  0  0  0  0  0  0
   14.5720    3.5583   13.0769 C   0  0  0  0  0  0  0  0  0  0  0  0
   14.6564    2.2357   12.3472 C   0  0  0  0  0  0  0  0  0  0  0  0
   14.6338    1.2326   13.4045 N   0  0  0  0  0  0  0  0  0  0  0  0
   12.6388    1.0371   14.9421 C   0  0  0  0  0  0  0  0  0  0  0  0
   14.8814   -4.4684   16.5814 H   0  0  0  0  0  0  0  0  0  0  0  0
   13.1615   -4.8969   16.6471 H   0  0  0  0  0  0  0  0  0  0  0  0
   13.9193   -4.2301   18.0910 H   0  0  0  0  0  0  0  0  0  0  0  0
   11.7506   -3.4773   15.5601 H   0  0  0  0  0  0  0  0  0  0  0  0
   11.2061   -1.2698   14.6420 H   0  0  0  0  0  0  0  0  0  0  0  0
   15.7697   -2.9901   17.8779 H   0  0  0  0  0  0  0  0  0  0  0  0
   18.1453   -2.4838   18.3370 H   0  0  0  0  0  0  0  0  0  0  0  0
   18.2837   -1.2501   19.6192 H   0  0  0  0  0  0  0  0  0  0  0  0
   18.5641   -2.1769   22.4687 H   0  0  0  0  0  0  0  0  0  0  0  0
   20.5525   -3.2169   23.5148 H   0  0  0  0  0  0  0  0  0  0  0  0
   21.4068   -5.3905   22.6804 H   0  0  0  0  0  0  0  0  0  0  0  0
   20.2693   -6.5422   20.8021 H   0  0  0  0  0  0  0  0  0  0  0  0
   18.2824   -5.5243   19.7379 H   0  0  0  0  0  0  0  0  0  0  0  0
   15.6617    0.6084   17.2013 H   0  0  0  0  0  0  0  0  0  0  0  0
   12.5678    3.3316   13.7875 H   0  0  0  0  0  0  0  0  0  0  0  0
   13.6779    3.9707   15.0097 H   0  0  0  0  0  0  0  0  0  0  0  0
   14.2278    4.3709   12.4305 H   0  0  0  0  0  0  0  0  0  0  0  0
   15.5481    3.8371   13.4911 H   0  0  0  0  0  0  0  0  0  0  0  0
   15.5610    2.1573   11.7380 H   0  0  0  0  0  0  0  0  0  0  0  0
   13.7861    2.1057   11.6931 H   0  0  0  0  0  0  0  0  0  0  0  0
   14.2137    0.3592   13.0943 H   0  0  0  0  0  0  0  0  0  0  0  0
   11.9965    0.9421   14.0566 H   0  0  0  0  0  0  0  0  0  0  0  0
   12.0644    1.5852   15.7010 H   0  0  0  0  0  0  0  0  0  0  0  0
  1  2  1  0
  2  3  2  0
  3  4  1  0
  4  5  2  0
  5  6  1  0
  6  7  2  0
  7  8  1  0
  8  9  1  0
  9 10  2  0
  9 11  1  0
 11 12  1  0
 12 13  2  0
 12 14  2  0
 12 15  1  0
 15 16  2  0
 16 17  1  0
 17 18  2  0
 18 19  1  0
 19 20  2  0
  6 21  1  0
 21 22  1  0
 22 23  2  0
 22 24  1  0
 24 25  1  0
 25 26  1  0
 26 27  1  0
 27 28  1  0
 24 29  1  0
  7  2  1  0
 20 15  1  0
 28 24  1  0
 29  5  1  0
  1 30  1  0
  1 31  1  0
  1 32  1  0
  3 33  1  0
  4 34  1  0
  8 35  1  0
 11 36  1  0
 11 37  1  0
 16 38  1  0
 17 39  1  0
 18 40  1  0
 19 41  1  0
 20 42  1  0
 21 43  1  0
 25 44  1  0
 25 45  1  0
 26 46  1  0
 26 47  1  0
 27 48  1  0
 27 49  1  0
 28 50  1  0
 29 51  1  0
 29 52  1  0
M  END
>  <Energy>  (548) 
86.355038882406532

>  <compound_id>  (548) 
1860

>  <target_id>  (548) 
1

>  <reference_id>  (548) 
26

>  <inspiration_ids>  (548) 
[26, 36]

>  <energy_score>  (548) 
-38.409395858541586

>  <distance_score>  (548) 
1.1331388448611885

>  <path>  (548) 
/opt/xchem-fragalysis-2/maxwin/BulkDock/SCRATCH/505732/C1860-P26/C1860-P26.minimised.mol

>  <scratch_subdir>  (548) 
/opt/xchem-fragalysis-2/maxwin/BulkDock/SCRATCH/505732/C1860-P26

>  <fragmenstein_runtime>  (548) 
1.7876503467559814

>  <fragmenstein_outcome>  (548) 
too moved

>  <fragmenstein_mode>  (548) 
expansion

>  <fragmenstein_error>  (548) 


$$$$
C1860-P36
     RDKit          3D

 52 55  0  0  0  0  0  0  0  0999 V2000
   14.2891   -4.4431   17.2168 C   0  0  0  0  0  0  0  0  0  0  0  0
   13.8908   -3.0924   16.7075 C   0  0  0  0  0  0  0  0  0  0  0  0
   12.6695   -2.9733   16.0168 C   0  0  0  0  0  0  0  0  0  0  0  0
   12.2845   -1.7608   15.4660 C   0  0  0  0  0  0  0  0  0  0  0  0
   13.1146   -0.6494   15.6178 C   0  0  0  0  0  0  0  0  0  0  0  0
   14.3179   -0.7489   16.3505 C   0  0  0  0  0  0  0  0  0  0  0  0
   14.7271   -1.9739   16.9028 C   0  0  0  0  0  0  0  0  0  0  0  0
   15.9489   -2.2059   17.5793 N   0  0  0  0  0  0  0  0  0  0  0  0
   16.9443   -1.2055   18.2449 C   0  0  0  0  0  0  0  0  0  0  0  0
   16.9422   -0.0341   18.2663 O   0  0  0  0  0  0  0  0  0  0  0  0
   18.0914   -1.9825   18.8394 C   0  0  0  0  0  0  0  0  0  0  0  0
   17.5486   -3.0369   20.1367 S   0  0  0  0  0  0  0  0  0  0  0  0
   16.8612   -4.1563   19.5132 O   0  0  0  0  0  0  0  0  0  0  0  0
   16.9154   -2.2515   21.1746 O   0  0  0  0  0  0  0  0  0  0  0  0
   19.0721   -3.6638   20.8059 C   0  0  0  0  0  0  0  0  0  0  0  0
   19.7158   -2.9544   21.8239 C   0  0  0  0  0  0  0  0  0  0  0  0
   20.9094   -3.4464   22.3507 C   0  0  0  0  0  0  0  0  0  0  0  0
   21.4464   -4.6414   21.8686 C   0  0  0  0  0  0  0  0  0  0  0  0
   20.7895   -5.3536   20.8634 C   0  0  0  0  0  0  0  0  0  0  0  0
   19.5950   -4.8695   20.3303 C   0  0  0  0  0  0  0  0  0  0  0  0
   15.0879    0.4058   16.4863 N   0  0  0  0  0  0  0  0  0  0  0  0
   14.9161    1.5709   15.7990 C   0  0  0  0  0  0  0  0  0  0  0  0
   15.6253    2.5415   16.0640 O   0  0  0  0  0  0  0  0  0  0  0  0
   13.8903    1.5477   14.6467 C   0  0  0  0  0  0  0  0  0  0  0  0
   13.4483    2.9735   14.2924 C   0  0  0  0  0  0  0  0  0  0  0  0
   14.3805    3.3713   13.1649 C   0  0  0  0  0  0  0  0  0  0  0  0
   14.5337    2.0740   12.4015 C   0  0  0  0  0  0  0  0  0  0  0  0
   14.5904    1.0411   13.4294 N   0  0  0  0  0  0  0  0  0  0  0  0
   12.6903    0.6846   15.0588 C   0  0  0  0  0  0  0  0  0  0  0  0
   15.2029   -4.7862   16.7227 H   0  0  0  0  0  0  0  0  0  0  0  0
   13.4946   -5.1637   17.0113 H   0  0  0  0  0  0  0  0  0  0  0  0
   14.4224   -4.4268   18.3026 H   0  0  0  0  0  0  0  0  0  0  0  0
   12.0237   -3.8409   15.8924 H   0  0  0  0  0  0  0  0  0  0  0  0
   11.3496   -1.6921   14.9123 H   0  0  0  0  0  0  0  0  0  0  0  0
   16.2064   -3.1582   17.8281 H   0  0  0  0  0  0  0  0  0  0  0  0
   18.5778   -2.5808   18.0641 H   0  0  0  0  0  0  0  0  0  0  0  0
   18.8163   -1.2775   19.2580 H   0  0  0  0  0  0  0  0  0  0  0  0
   19.2955   -2.0304   22.2165 H   0  0  0  0  0  0  0  0  0  0  0  0
   21.4183   -2.9033   23.1440 H   0  0  0  0  0  0  0  0  0  0  0  0
   22.3750   -5.0244   22.2861 H   0  0  0  0  0  0  0  0  0  0  0  0
   21.2068   -6.2911   20.5031 H   0  0  0  0  0  0  0  0  0  0  0  0
   19.0833   -5.4396   19.5585 H   0  0  0  0  0  0  0  0  0  0  0  0
   15.8596    0.4347   17.1458 H   0  0  0  0  0  0  0  0  0  0  0  0
   12.4161    2.9828   13.9187 H   0  0  0  0  0  0  0  0  0  0  0  0
   13.5075    3.6791   15.1274 H   0  0  0  0  0  0  0  0  0  0  0  0
   13.9644    4.1728   12.5476 H   0  0  0  0  0  0  0  0  0  0  0  0
   15.3465    3.7066   13.5602 H   0  0  0  0  0  0  0  0  0  0  0  0
   15.4300    2.0670   11.7752 H   0  0  0  0  0  0  0  0  0  0  0  0
   13.6616    1.9076   11.7580 H   0  0  0  0  0  0  0  0  0  0  0  0
   14.1979    0.1590   13.1078 H   0  0  0  0  0  0  0  0  0  0  0  0
   12.0258    0.5373   14.1971 H   0  0  0  0  0  0  0  0  0  0  0  0
   12.1048    1.1977   15.8335 H   0  0  0  0  0  0  0  0  0  0  0  0
  1  2  1  0
  2  3  2  0
  3  4  1  0
  4  5  2  0
  5  6  1  0
  6  7  2  0
  7  8  1  0
  8  9  1  0
  9 10  2  0
  9 11  1  0
 11 12  1  0
 12 13  2  0
 12 14  2  0
 12 15  1  0
 15 16  2  0
 16 17  1  0
 17 18  2  0
 18 19  1  0
 19 20  2  0
  6 21  1  0
 21 22  1  0
 22 23  2  0
 22 24  1  0
 24 25  1  0
 25 26  1  0
 26 27  1  0
 27 28  1  0
 24 29  1  0
  7  2  1  0
 20 15  1  0
 28 24  1  0
 29  5  1  0
  1 30  1  0
  1 31  1  0
  1 32  1  0
  3 33  1  0
  4 34  1  0
  8 35  1  0
 11 36  1  0
 11 37  1  0
 16 38  1  0
 17 39  1  0
 18 40  1  0
 19 41  1  0
 20 42  1  0
 21 43  1  0
 25 44  1  0
 25 45  1  0
 26 46  1  0
 26 47  1  0
 27 48  1  0
 27 49  1  0
 28 50  1  0
 29 51  1  0
 29 52  1  0
M  END
>  <Energy>  (549) 
85.597047322144149

>  <compound_id>  (549) 
1860

>  <target_id>  (549) 
1

>  <reference_id>  (549) 
36

>  <inspiration_ids>  (549) 
[26, 36]

>  <energy_score>  (549) 
-39.16738741880471

>  <distance_score>  (549) 
1.0714830784610565

>  <path>  (549) 
/opt/xchem-fragalysis-2/maxwin/BulkDock/SCRATCH/505732/C1860-P36/C1860-P36.minimised.mol

>  <scratch_subdir>  (549) 
/opt/xchem-fragalysis-2/maxwin/BulkDock/SCRATCH/505732/C1860-P36

>  <fragmenstein_runtime>  (549) 
2.139719247817993

>  <fragmenstein_outcome>  (549) 
too moved

>  <fragmenstein_mode>  (549) 
expansion

>  <fragmenstein_error>  (549) 


$$$$
C1862-P26
     RDKit          3D

 43 44  0  0  0  0  0  0  0  0999 V2000
   16.4961   -3.5315   20.9566 C   0  0  0  0  0  0  0  0  0  0  0  0
   17.2736   -2.4865   20.1528 C   0  0  0  0  0  0  0  0  0  0  0  0
   16.6694   -1.0900   20.3202 C   0  0  0  0  0  0  0  0  0  0  0  0
   17.4679   -2.9071   18.6993 C   0  0  0  0  0  0  0  0  0  0  0  0
   18.7630   -3.3185   18.3166 C   0  0  0  0  0  0  0  0  0  0  0  0
   19.0443   -3.7237   17.0120 C   0  0  0  0  0  0  0  0  0  0  0  0
   18.0344   -3.7340   16.0610 C   0  0  0  0  0  0  0  0  0  0  0  0
   16.7465   -3.3362   16.4164 C   0  0  0  0  0  0  0  0  0  0  0  0
   16.4457   -2.9057   17.7236 C   0  0  0  0  0  0  0  0  0  0  0  0
   15.1026   -2.5830   18.0888 N   0  0  0  0  0  0  0  0  0  0  0  0
   14.0595   -2.3203   17.1500 C   0  0  0  0  0  0  0  0  0  0  0  0
   13.0567   -3.2906   16.9953 C   0  0  0  0  0  0  0  0  0  0  0  0
   13.0581   -4.3472   17.8692 O   0  0  0  0  0  0  0  0  0  0  0  0
   12.0555   -3.1692   16.0418 C   0  0  0  0  0  0  0  0  0  0  0  0
   12.0132   -2.0297   15.2488 C   0  0  0  0  0  0  0  0  0  0  0  0
   12.9580   -1.0170   15.4348 C   0  0  0  0  0  0  0  0  0  0  0  0
   13.9987   -1.1420   16.3816 C   0  0  0  0  0  0  0  0  0  0  0  0
   14.9366    0.0257   16.6669 C   0  0  0  0  0  0  0  0  0  0  0  0
   14.3459    0.8788   17.7978 C   0  0  0  0  0  0  0  0  0  0  0  0
   15.1589    0.8626   15.4675 N   0  0  0  0  0  0  0  0  0  0  0  0
   16.1584    1.8529   15.8403 O   0  0  0  0  0  0  0  0  0  0  0  0
   15.4500   -3.6037   20.6459 H   0  0  0  0  0  0  0  0  0  0  0  0
   16.9460   -4.5247   20.8492 H   0  0  0  0  0  0  0  0  0  0  0  0
   16.5025   -3.2756   22.0219 H   0  0  0  0  0  0  0  0  0  0  0  0
   18.2699   -2.4267   20.6132 H   0  0  0  0  0  0  0  0  0  0  0  0
   16.7705   -0.7569   21.3593 H   0  0  0  0  0  0  0  0  0  0  0  0
   17.1787   -0.3586   19.6833 H   0  0  0  0  0  0  0  0  0  0  0  0
   15.6027   -1.0655   20.0833 H   0  0  0  0  0  0  0  0  0  0  0  0
   19.5725   -3.3260   19.0442 H   0  0  0  0  0  0  0  0  0  0  0  0
   20.0502   -4.0345   16.7435 H   0  0  0  0  0  0  0  0  0  0  0  0
   18.2381   -4.0571   15.0439 H   0  0  0  0  0  0  0  0  0  0  0  0
   15.9716   -3.3781   15.6542 H   0  0  0  0  0  0  0  0  0  0  0  0
   14.7721   -3.3930   18.6252 H   0  0  0  0  0  0  0  0  0  0  0  0
   12.1358   -4.4262   18.1917 H   0  0  0  0  0  0  0  0  0  0  0  0
   11.3162   -3.9508   15.9090 H   0  0  0  0  0  0  0  0  0  0  0  0
   11.2362   -1.9149   14.4957 H   0  0  0  0  0  0  0  0  0  0  0  0
   12.8714   -0.1119   14.8352 H   0  0  0  0  0  0  0  0  0  0  0  0
   15.9144   -0.3527   16.9804 H   0  0  0  0  0  0  0  0  0  0  0  0
   13.4062    1.3538   17.4930 H   0  0  0  0  0  0  0  0  0  0  0  0
   15.0360    1.6709   18.1079 H   0  0  0  0  0  0  0  0  0  0  0  0
   14.1351    0.2717   18.6842 H   0  0  0  0  0  0  0  0  0  0  0  0
   15.6705    0.2885   14.7909 H   0  0  0  0  0  0  0  0  0  0  0  0
   15.7020    2.6886   15.6217 H   0  0  0  0  0  0  0  0  0  0  0  0
  1  2  1  0
  2  3  1  0
  2  4  1  0
  4  5  2  0
  5  6  1  0
  6  7  2  0
  7  8  1  0
  8  9  2  0
  9 10  1  0
 10 11  1  0
 11 12  2  0
 12 13  1  0
 12 14  1  0
 14 15  2  0
 15 16  1  0
 16 17  2  0
 17 18  1  0
 18 19  1  0
 18 20  1  0
 20 21  1  0
  9  4  1  0
 17 11  1  0
  1 22  1  0
  1 23  1  0
  1 24  1  0
  2 25  1  0
  3 26  1  0
  3 27  1  0
  3 28  1  0
  5 29  1  0
  6 30  1  0
  7 31  1  0
  8 32  1  0
 10 33  1  0
 13 34  1  0
 14 35  1  0
 15 36  1  0
 16 37  1  0
 18 38  1  0
 19 39  1  0
 19 40  1  0
 19 41  1  0
 20 42  1  0
 21 43  1  0
M  END
>  <Energy>  (550) 
76.424875323444184

>  <compound_id>  (550) 
1862

>  <target_id>  (550) 
1

>  <reference_id>  (550) 
26

>  <inspiration_ids>  (550) 
[26, 63]

>  <energy_score>  (550) 
-60.02277564110025

>  <distance_score>  (550) 
0.7113840888550697

>  <path>  (550) 
/opt/xchem-fragalysis-2/maxwin/BulkDock/SCRATCH/505732/C1862-P26/C1862-P26.minimised.mol

>  <scratch_subdir>  (550) 
/opt/xchem-fragalysis-2/maxwin/BulkDock/SCRATCH/505732/C1862-P26

>  <fragmenstein_runtime>  (550) 
12.193092346191406

>  <fragmenstein_outcome>  (550) 
acceptable

>  <fragmenstein_mode>  (550) 
expansion

>  <fragmenstein_error>  (550) 


$$$$
C1862-P63
     RDKit          3D

 43 44  0  0  0  0  0  0  0  0999 V2000
   16.5357   -3.4304   20.9712 C   0  0  0  0  0  0  0  0  0  0  0  0
   17.2420   -2.3073   20.2078 C   0  0  0  0  0  0  0  0  0  0  0  0
   16.5161   -0.9710   20.3831 C   0  0  0  0  0  0  0  0  0  0  0  0
   17.5070   -2.6784   18.7521 C   0  0  0  0  0  0  0  0  0  0  0  0
   18.8440   -2.9479   18.3886 C   0  0  0  0  0  0  0  0  0  0  0  0
   19.1881   -3.2991   17.0833 C   0  0  0  0  0  0  0  0  0  0  0  0
   18.2010   -3.3988   16.1133 C   0  0  0  0  0  0  0  0  0  0  0  0
   16.8730   -3.1414   16.4495 C   0  0  0  0  0  0  0  0  0  0  0  0
   16.5086   -2.7599   17.7555 C   0  0  0  0  0  0  0  0  0  0  0  0
   15.1338   -2.5828   18.0983 N   0  0  0  0  0  0  0  0  0  0  0  0
   14.0930   -2.3317   17.1541 C   0  0  0  0  0  0  0  0  0  0  0  0
   13.1118   -3.3222   16.9844 C   0  0  0  0  0  0  0  0  0  0  0  0
   13.1457   -4.4088   17.8204 O   0  0  0  0  0  0  0  0  0  0  0  0
   12.0951   -3.2039   16.0473 C   0  0  0  0  0  0  0  0  0  0  0  0
   12.0189   -2.0518   15.2765 C   0  0  0  0  0  0  0  0  0  0  0  0
   12.9431   -1.0227   15.4726 C   0  0  0  0  0  0  0  0  0  0  0  0
   13.9945   -1.1397   16.4100 C   0  0  0  0  0  0  0  0  0  0  0  0
   14.9007    0.0515   16.7000 C   0  0  0  0  0  0  0  0  0  0  0  0
   14.2596    0.9183   17.7918 C   0  0  0  0  0  0  0  0  0  0  0  0
   15.1463    0.8636   15.4878 N   0  0  0  0  0  0  0  0  0  0  0  0
   16.1287    1.8697   15.8649 O   0  0  0  0  0  0  0  0  0  0  0  0
   15.5071   -3.5827   20.6323 H   0  0  0  0  0  0  0  0  0  0  0  0
   17.0699   -4.3800   20.8564 H   0  0  0  0  0  0  0  0  0  0  0  0
   16.4949   -3.1973   22.0409 H   0  0  0  0  0  0  0  0  0  0  0  0
   18.2175   -2.1735   20.6962 H   0  0  0  0  0  0  0  0  0  0  0  0
   16.5560   -0.6540   21.4313 H   0  0  0  0  0  0  0  0  0  0  0  0
   16.9811   -0.1851   19.7780 H   0  0  0  0  0  0  0  0  0  0  0  0
   15.4592   -1.0312   20.1109 H   0  0  0  0  0  0  0  0  0  0  0  0
   19.6368   -2.8854   19.1316 H   0  0  0  0  0  0  0  0  0  0  0  0
   20.2252   -3.5005   16.8294 H   0  0  0  0  0  0  0  0  0  0  0  0
   18.4554   -3.6847   15.0965 H   0  0  0  0  0  0  0  0  0  0  0  0
   16.1172   -3.2537   15.6752 H   0  0  0  0  0  0  0  0  0  0  0  0
   14.8627   -3.4549   18.5663 H   0  0  0  0  0  0  0  0  0  0  0  0
   12.2942   -4.3735   18.3089 H   0  0  0  0  0  0  0  0  0  0  0  0
   11.3725   -4.0001   15.9096 H   0  0  0  0  0  0  0  0  0  0  0  0
   11.2339   -1.9424   14.5311 H   0  0  0  0  0  0  0  0  0  0  0  0
   12.8335   -0.1099   14.8887 H   0  0  0  0  0  0  0  0  0  0  0  0
   15.8748   -0.2952   17.0551 H   0  0  0  0  0  0  0  0  0  0  0  0
   13.3225    1.3708   17.4473 H   0  0  0  0  0  0  0  0  0  0  0  0
   14.9262    1.7288   18.1056 H   0  0  0  0  0  0  0  0  0  0  0  0
   14.0315    0.3255   18.6835 H   0  0  0  0  0  0  0  0  0  0  0  0
   15.6811    0.2785   14.8388 H   0  0  0  0  0  0  0  0  0  0  0  0
   15.6755    2.6969   15.6108 H   0  0  0  0  0  0  0  0  0  0  0  0
  1  2  1  0
  2  3  1  0
  2  4  1  0
  4  5  2  0
  5  6  1  0
  6  7  2  0
  7  8  1  0
  8  9  2  0
  9 10  1  0
 10 11  1  0
 11 12  2  0
 12 13  1  0
 12 14  1  0
 14 15  2  0
 15 16  1  0
 16 17  2  0
 17 18  1  0
 18 19  1  0
 18 20  1  0
 20 21  1  0
  9  4  1  0
 17 11  1  0
  1 22  1  0
  1 23  1  0
  1 24  1  0
  2 25  1  0
  3 26  1  0
  3 27  1  0
  3 28  1  0
  5 29  1  0
  6 30  1  0
  7 31  1  0
  8 32  1  0
 10 33  1  0
 13 34  1  0
 14 35  1  0
 15 36  1  0
 16 37  1  0
 18 38  1  0
 19 39  1  0
 19 40  1  0
 19 41  1  0
 20 42  1  0
 21 43  1  0
M  END
>  <Energy>  (551) 
76.724258465908804

>  <compound_id>  (551) 
1862

>  <target_id>  (551) 
1

>  <reference_id>  (551) 
63

>  <inspiration_ids>  (551) 
[26, 63]

>  <energy_score>  (551) 
-59.72339249863521

>  <distance_score>  (551) 
0.7031250266691811

>  <path>  (551) 
/opt/xchem-fragalysis-2/maxwin/BulkDock/SCRATCH/505732/C1862-P63/C1862-P63.minimised.mol

>  <scratch_subdir>  (551) 
/opt/xchem-fragalysis-2/maxwin/BulkDock/SCRATCH/505732/C1862-P63

>  <fragmenstein_runtime>  (551) 
12.314806938171387

>  <fragmenstein_outcome>  (551) 
acceptable

>  <fragmenstein_mode>  (551) 
expansion

>  <fragmenstein_error>  (551) 


$$$$
C1581-P26
     RDKit          3D

 56 58  0  0  0  0  0  0  0  0999 V2000
   10.7802    2.6643   13.5223 C   0  0  0  0  0  0  0  0  0  0  0  0
   11.0365    1.1758   13.7317 C   0  0  0  0  0  0  0  0  0  0  0  0
   11.1696    0.8198   15.2134 C   0  0  0  0  0  0  0  0  0  0  0  0
   11.9959   -0.4257   15.4687 C   0  0  0  0  0  0  0  0  0  0  0  0
   11.3061   -1.6566   15.3574 C   0  0  0  0  0  0  0  0  0  0  0  0
   11.8875   -2.8612   15.7323 C   0  0  0  0  0  0  0  0  0  0  0  0
   13.1702   -2.8644   16.2484 C   0  0  0  0  0  0  0  0  0  0  0  0
   13.8808   -1.6656   16.3092 C   0  0  0  0  0  0  0  0  0  0  0  0
   15.1420   -1.6800   16.8440 O   0  0  0  0  0  0  0  0  0  0  0  0
   13.3527   -0.4251   15.8729 C   0  0  0  0  0  0  0  0  0  0  0  0
   14.3186    0.7659   15.9286 C   0  0  0  0  0  0  0  0  0  0  0  0
   14.3731    1.3954   17.3204 C   0  0  0  0  0  0  0  0  0  0  0  0
   15.1172    2.7126   17.3030 N   0  0  0  0  0  0  0  0  0  0  0  0
   15.3113    3.2529   18.7066 C   0  0  0  0  0  0  0  0  0  0  0  0
   16.6286    2.7046   19.2118 C   0  0  0  0  0  0  0  0  0  0  0  0
   14.6309    3.9652   19.3481 O   0  0  0  0  0  0  0  0  0  0  0  0
   14.0564    3.0042   16.2813 C   0  0  0  0  0  0  0  0  0  0  0  0
   14.1344    2.0287   15.1157 C   0  0  0  0  0  0  0  0  0  0  0  0
   15.2754    2.3357   14.1231 C   0  0  0  0  0  0  0  0  0  0  0  0
   16.4469    2.8708   14.7390 O   0  0  0  0  0  0  0  0  0  0  0  0
   14.7874    3.2716   13.0305 C   0  0  0  0  0  0  0  0  0  0  0  0
   14.8968    4.6680   13.2187 C   0  0  0  0  0  0  0  0  0  0  0  0
   14.3950    5.5791   12.2849 C   0  0  0  0  0  0  0  0  0  0  0  0
   13.7419    5.1171   11.1511 C   0  0  0  0  0  0  0  0  0  0  0  0
   13.6339    3.7489   10.9545 C   0  0  0  0  0  0  0  0  0  0  0  0
   12.8949    3.3077    9.8871 O   0  0  0  0  0  0  0  0  0  0  0  0
   14.2077    2.8076   11.8334 C   0  0  0  0  0  0  0  0  0  0  0  0
   14.0226    1.4359   11.5287 N   0  0  0  0  0  0  0  0  0  0  0  0
    9.8614    2.9860   14.0192 H   0  0  0  0  0  0  0  0  0  0  0  0
   10.6978    2.8861   12.4548 H   0  0  0  0  0  0  0  0  0  0  0  0
   11.5913    3.2801   13.9196 H   0  0  0  0  0  0  0  0  0  0  0  0
   10.2128    0.6027   13.2994 H   0  0  0  0  0  0  0  0  0  0  0  0
   11.9312    0.8830   13.1742 H   0  0  0  0  0  0  0  0  0  0  0  0
   11.5584    1.6503   15.8076 H   0  0  0  0  0  0  0  0  0  0  0  0
   10.1625    0.6660   15.6273 H   0  0  0  0  0  0  0  0  0  0  0  0
   10.2819   -1.6701   14.9868 H   0  0  0  0  0  0  0  0  0  0  0  0
   11.3282   -3.7884   15.6470 H   0  0  0  0  0  0  0  0  0  0  0  0
   13.6046   -3.8026   16.5798 H   0  0  0  0  0  0  0  0  0  0  0  0
   15.3956   -2.5991   17.0348 H   0  0  0  0  0  0  0  0  0  0  0  0
   15.3173    0.3809   15.6791 H   0  0  0  0  0  0  0  0  0  0  0  0
   14.9593    0.7391   17.9800 H   0  0  0  0  0  0  0  0  0  0  0  0
   13.4056    1.4712   17.8461 H   0  0  0  0  0  0  0  0  0  0  0  0
   17.1951    2.2027   18.4221 H   0  0  0  0  0  0  0  0  0  0  0  0
   17.2338    3.5326   19.5918 H   0  0  0  0  0  0  0  0  0  0  0  0
   16.4327    1.9908   20.0164 H   0  0  0  0  0  0  0  0  0  0  0  0
   13.0564    3.1205   16.7351 H   0  0  0  0  0  0  0  0  0  0  0  0
   14.2732    4.0250   15.9440 H   0  0  0  0  0  0  0  0  0  0  0  0
   13.2175    2.0288   14.5525 H   0  0  0  0  0  0  0  0  0  0  0  0
   15.6122    1.4038   13.6607 H   0  0  0  0  0  0  0  0  0  0  0  0
   16.4322    2.6484   15.6892 H   0  0  0  0  0  0  0  0  0  0  0  0
   15.3872    5.0590   14.1097 H   0  0  0  0  0  0  0  0  0  0  0  0
   14.4979    6.6470   12.4594 H   0  0  0  0  0  0  0  0  0  0  0  0
   13.3087    5.8114   10.4383 H   0  0  0  0  0  0  0  0  0  0  0  0
   12.6740    2.3863   10.1165 H   0  0  0  0  0  0  0  0  0  0  0  0
   14.6019    0.8127   12.0829 H   0  0  0  0  0  0  0  0  0  0  0  0
   14.2413    1.2676   10.5453 H   0  0  0  0  0  0  0  0  0  0  0  0
  1  2  1  0
  2  3  1  0
  3  4  1  0
  4  5  2  0
  5  6  1  0
  6  7  2  0
  7  8  1  0
  8  9  1  0
  8 10  2  0
 10 11  1  0
 11 12  1  0
 12 13  1  0
 13 14  1  0
 14 15  1  0
 14 16  2  0
 13 17  1  0
 17 18  1  0
 18 19  1  0
 19 20  1  0
 19 21  1  0
 21 22  2  0
 22 23  1  0
 23 24  2  0
 24 25  1  0
 25 26  1  0
 25 27  2  0
 27 28  1  0
 10  4  1  0
 18 11  1  0
 27 21  1  0
  1 29  1  0
  1 30  1  0
  1 31  1  0
  2 32  1  0
  2 33  1  0
  3 34  1  0
  3 35  1  0
  5 36  1  0
  6 37  1  0
  7 38  1  0
  9 39  1  0
 11 40  1  0
 12 41  1  0
 12 42  1  0
 15 43  1  0
 15 44  1  0
 15 45  1  0
 17 46  1  0
 17 47  1  0
 18 48  1  0
 19 49  1  0
 20 50  1  0
 22 51  1  0
 23 52  1  0
 24 53  1  0
 26 54  1  0
 28 55  1  0
 28 56  1  0
M  END
>  <Energy>  (552) 
111.23202517261771

>  <compound_id>  (552) 
1581

>  <target_id>  (552) 
1

>  <reference_id>  (552) 
26

>  <inspiration_ids>  (552) 
[26, 66]

>  <energy_score>  (552) 
8.688510590037396

>  <distance_score>  (552) 
2.9850646399362466

>  <path>  (552) 
/opt/xchem-fragalysis-2/maxwin/BulkDock/SCRATCH/505732/C1581-P26/C1581-P26.minimised.mol

>  <scratch_subdir>  (552) 
/opt/xchem-fragalysis-2/maxwin/BulkDock/SCRATCH/505732/C1581-P26

>  <fragmenstein_runtime>  (552) 
186.26870560646057

>  <fragmenstein_outcome>  (552) 
too moved

>  <fragmenstein_mode>  (552) 
expansion

>  <fragmenstein_error>  (552) 


$$$$
C1581-P66
     RDKit          3D

 56 58  0  0  0  0  0  0  0  0999 V2000
   13.0859    1.5802   11.4472 C   0  0  0  0  0  0  0  0  0  0  0  0
   13.4878    0.5026   12.4447 C   0  0  0  0  0  0  0  0  0  0  0  0
   12.5956    0.5665   13.6871 C   0  0  0  0  0  0  0  0  0  0  0  0
   12.9597   -0.5132   14.6803 C   0  0  0  0  0  0  0  0  0  0  0  0
   12.2222   -1.7176   14.5979 C   0  0  0  0  0  0  0  0  0  0  0  0
   12.4639   -2.7767   15.4554 C   0  0  0  0  0  0  0  0  0  0  0  0
   13.5305   -2.7010   16.3289 C   0  0  0  0  0  0  0  0  0  0  0  0
   14.2786   -1.5188   16.4108 C   0  0  0  0  0  0  0  0  0  0  0  0
   15.3096   -1.5139   17.2976 O   0  0  0  0  0  0  0  0  0  0  0  0
   13.9778   -0.3604   15.6612 C   0  0  0  0  0  0  0  0  0  0  0  0
   14.5238    1.0465   16.0153 C   0  0  0  0  0  0  0  0  0  0  0  0
   15.2478    1.2416   17.3703 C   0  0  0  0  0  0  0  0  0  0  0  0
   16.7504    1.0643   17.2998 N   0  0  0  0  0  0  0  0  0  0  0  0
   17.3811    1.1648   18.6756 C   0  0  0  0  0  0  0  0  0  0  0  0
   17.4296   -0.2344   19.2461 C   0  0  0  0  0  0  0  0  0  0  0  0
   17.7990    2.0994   19.2546 O   0  0  0  0  0  0  0  0  0  0  0  0
   16.5662    2.0942   16.2403 C   0  0  0  0  0  0  0  0  0  0  0  0
   15.5811    1.6908   15.1515 C   0  0  0  0  0  0  0  0  0  0  0  0
   15.2385    2.9015   14.2438 C   0  0  0  0  0  0  0  0  0  0  0  0
   16.4700    3.4156   13.7003 O   0  0  0  0  0  0  0  0  0  0  0  0
   14.3765    4.0947   14.6331 C   0  0  0  0  0  0  0  0  0  0  0  0
   13.8761    4.3249   15.9241 C   0  0  0  0  0  0  0  0  0  0  0  0
   12.9849    5.3718   16.2045 C   0  0  0  0  0  0  0  0  0  0  0  0
   12.5509    6.2131   15.1909 C   0  0  0  0  0  0  0  0  0  0  0  0
   13.0619    6.0304   13.9201 C   0  0  0  0  0  0  0  0  0  0  0  0
   12.5792    6.8099   12.9039 O   0  0  0  0  0  0  0  0  0  0  0  0
   14.0358    5.0533   13.6455 C   0  0  0  0  0  0  0  0  0  0  0  0
   14.5412    4.9727   12.3152 N   0  0  0  0  0  0  0  0  0  0  0  0
   13.7114    1.5272   10.5517 H   0  0  0  0  0  0  0  0  0  0  0  0
   13.1878    2.5815   11.8690 H   0  0  0  0  0  0  0  0  0  0  0  0
   12.0383    1.4727   11.1556 H   0  0  0  0  0  0  0  0  0  0  0  0
   13.4376   -0.4852   11.9806 H   0  0  0  0  0  0  0  0  0  0  0  0
   14.5452    0.6030   12.7021 H   0  0  0  0  0  0  0  0  0  0  0  0
   12.6354    1.5547   14.1529 H   0  0  0  0  0  0  0  0  0  0  0  0
   11.5451    0.4468   13.3891 H   0  0  0  0  0  0  0  0  0  0  0  0
   11.4260   -1.8186   13.8657 H   0  0  0  0  0  0  0  0  0  0  0  0
   11.8444   -3.6659   15.4136 H   0  0  0  0  0  0  0  0  0  0  0  0
   13.7505   -3.5540   16.9645 H   0  0  0  0  0  0  0  0  0  0  0  0
   15.5373   -2.4277   17.5379 H   0  0  0  0  0  0  0  0  0  0  0  0
   13.6264    1.6667   16.0743 H   0  0  0  0  0  0  0  0  0  0  0  0
   14.8696    0.5429   18.1245 H   0  0  0  0  0  0  0  0  0  0  0  0
   15.0064    2.1983   17.8658 H   0  0  0  0  0  0  0  0  0  0  0  0
   17.6823   -0.9625   18.4708 H   0  0  0  0  0  0  0  0  0  0  0  0
   16.4668   -0.4821   19.6993 H   0  0  0  0  0  0  0  0  0  0  0  0
   18.2072   -0.2811   20.0145 H   0  0  0  0  0  0  0  0  0  0  0  0
   17.5649    2.1766   15.7867 H   0  0  0  0  0  0  0  0  0  0  0  0
   16.4219    3.0968   16.6768 H   0  0  0  0  0  0  0  0  0  0  0  0
   16.0727    0.9242   14.5359 H   0  0  0  0  0  0  0  0  0  0  0  0
   14.7216    2.4853   13.3893 H   0  0  0  0  0  0  0  0  0  0  0  0
   16.9740    2.6616   13.3456 H   0  0  0  0  0  0  0  0  0  0  0  0
   14.1574    3.7097   16.7645 H   0  0  0  0  0  0  0  0  0  0  0  0
   12.6142    5.5121   17.2176 H   0  0  0  0  0  0  0  0  0  0  0  0
   11.8261    6.9965   15.3870 H   0  0  0  0  0  0  0  0  0  0  0  0
   12.7972    6.3125   12.0934 H   0  0  0  0  0  0  0  0  0  0  0  0
   15.4339    4.4666   12.3467 H   0  0  0  0  0  0  0  0  0  0  0  0
   14.7476    5.9123   11.9738 H   0  0  0  0  0  0  0  0  0  0  0  0
  1  2  1  0
  2  3  1  0
  3  4  1  0
  4  5  2  0
  5  6  1  0
  6  7  2  0
  7  8  1  0
  8  9  1  0
  8 10  2  0
 10 11  1  0
 11 12  1  0
 12 13  1  0
 13 14  1  0
 14 15  1  0
 14 16  2  0
 13 17  1  0
 17 18  1  0
 18 19  1  0
 19 20  1  0
 19 21  1  0
 21 22  2  0
 22 23  1  0
 23 24  2  0
 24 25  1  0
 25 26  1  0
 25 27  2  0
 27 28  1  0
 10  4  1  0
 18 11  1  0
 27 21  1  0
  1 29  1  0
  1 30  1  0
  1 31  1  0
  2 32  1  0
  2 33  1  0
  3 34  1  0
  3 35  1  0
  5 36  1  0
  6 37  1  0
  7 38  1  0
  9 39  1  0
 11 40  1  0
 12 41  1  0
 12 42  1  0
 15 43  1  0
 15 44  1  0
 15 45  1  0
 17 46  1  0
 17 47  1  0
 18 48  1  0
 19 49  1  0
 20 50  1  0
 22 51  1  0
 23 52  1  0
 24 53  1  0
 26 54  1  0
 28 55  1  0
 28 56  1  0
M  END
>  <Energy>  (553) 
122.61007124255184

>  <compound_id>  (553) 
1581

>  <target_id>  (553) 
1

>  <reference_id>  (553) 
66

>  <inspiration_ids>  (553) 
[26, 66]

>  <energy_score>  (553) 
20.06655665996996

>  <distance_score>  (553) 
2.7694671188014666

>  <path>  (553) 
/opt/xchem-fragalysis-2/maxwin/BulkDock/SCRATCH/505732/C1581-P66/C1581-P66.minimised.mol

>  <scratch_subdir>  (553) 
/opt/xchem-fragalysis-2/maxwin/BulkDock/SCRATCH/505732/C1581-P66

>  <fragmenstein_runtime>  (553) 
196.3997950553894

>  <fragmenstein_outcome>  (553) 
too moved

>  <fragmenstein_mode>  (553) 
expansion

>  <fragmenstein_error>  (553) 


$$$$
C1864-P26
     RDKit          3D

 32 33  0  0  0  0  0  0  0  0999 V2000
   12.3074    4.0057   13.2256 C   0  0  0  0  0  0  0  0  0  0  0  0
   13.4722    4.6118   13.9998 C   0  0  0  0  0  0  0  0  0  0  0  0
   14.8479    4.0836   13.5710 C   0  0  0  0  0  0  0  0  0  0  0  0
   14.9961    2.6636   13.9802 C   0  0  0  0  0  0  0  0  0  0  0  0
   14.7569    1.5346   13.2309 C   0  0  0  0  0  0  0  0  0  0  0  0
   14.5898    0.4211   14.0777 C   0  0  0  0  0  0  0  0  0  0  0  0
   14.1447   -0.7762   13.6680 O   0  0  0  0  0  0  0  0  0  0  0  0
   14.8145    0.7018   15.4087 C   0  0  0  0  0  0  0  0  0  0  0  0
   14.5459   -0.0863   16.5859 C   0  0  0  0  0  0  0  0  0  0  0  0
   15.0873    0.0452   17.6813 O   0  0  0  0  0  0  0  0  0  0  0  0
   13.4921   -1.1266   16.4550 C   0  0  0  0  0  0  0  0  0  0  0  0
   13.8440   -2.4292   16.8237 C   0  0  0  0  0  0  0  0  0  0  0  0
   12.9769   -3.4788   16.5371 C   0  0  0  0  0  0  0  0  0  0  0  0
   11.7766   -3.2334   15.8842 C   0  0  0  0  0  0  0  0  0  0  0  0
   11.4009   -1.9392   15.5593 C   0  0  0  0  0  0  0  0  0  0  0  0
   12.2384   -0.8812   15.8671 C   0  0  0  0  0  0  0  0  0  0  0  0
   11.7336    0.3400   15.5268 O   0  0  0  0  0  0  0  0  0  0  0  0
   15.3916    2.2842   15.6048 S   0  0  0  0  0  0  0  0  0  0  0  0
   12.4540    4.1116   12.1460 H   0  0  0  0  0  0  0  0  0  0  0  0
   12.1772    2.9444   13.4564 H   0  0  0  0  0  0  0  0  0  0  0  0
   11.3759    4.5161   13.4912 H   0  0  0  0  0  0  0  0  0  0  0  0
   13.3065    4.4687   15.0742 H   0  0  0  0  0  0  0  0  0  0  0  0
   13.4608    5.6953   13.8272 H   0  0  0  0  0  0  0  0  0  0  0  0
   15.6331    4.6966   14.0304 H   0  0  0  0  0  0  0  0  0  0  0  0
   14.9682    4.1843   12.4856 H   0  0  0  0  0  0  0  0  0  0  0  0
   14.5472    1.5531   12.1691 H   0  0  0  0  0  0  0  0  0  0  0  0
   13.9802   -0.7869   12.7095 H   0  0  0  0  0  0  0  0  0  0  0  0
   14.8064   -2.6304   17.2886 H   0  0  0  0  0  0  0  0  0  0  0  0
   13.2486   -4.4985   16.7939 H   0  0  0  0  0  0  0  0  0  0  0  0
   11.1210   -4.0565   15.6283 H   0  0  0  0  0  0  0  0  0  0  0  0
   10.4598   -1.7603   15.0429 H   0  0  0  0  0  0  0  0  0  0  0  0
   12.3441    1.0445   15.8020 H   0  0  0  0  0  0  0  0  0  0  0  0
  1  2  1  0
  2  3  1  0
  3  4  1  0
  4  5  2  0
  5  6  1  0
  6  7  1  0
  6  8  2  0
  8  9  1  0
  9 10  2  0
  9 11  1  0
 11 12  2  0
 12 13  1  0
 13 14  2  0
 14 15  1  0
 15 16  2  0
 16 17  1  0
  8 18  1  0
 18  4  1  0
 16 11  1  0
  1 19  1  0
  1 20  1  0
  1 21  1  0
  2 22  1  0
  2 23  1  0
  3 24  1  0
  3 25  1  0
  5 26  1  0
  7 27  1  0
 12 28  1  0
 13 29  1  0
 14 30  1  0
 15 31  1  0
 17 32  1  0
M  END
>  <Energy>  (554) 
58.145611376755667

>  <compound_id>  (554) 
1864

>  <target_id>  (554) 
1

>  <reference_id>  (554) 
26

>  <inspiration_ids>  (554) 
[26, 80]

>  <energy_score>  (554) 
-68.11855778377682

>  <distance_score>  (554) 
1.9322206403574547

>  <path>  (554) 
/opt/xchem-fragalysis-2/maxwin/BulkDock/SCRATCH/505732/C1864-P26/C1864-P26.minimised.mol

>  <scratch_subdir>  (554) 
/opt/xchem-fragalysis-2/maxwin/BulkDock/SCRATCH/505732/C1864-P26

>  <fragmenstein_runtime>  (554) 
7.389754772186279

>  <fragmenstein_outcome>  (554) 
too moved

>  <fragmenstein_mode>  (554) 
expansion

>  <fragmenstein_error>  (554) 


$$$$
C1864-P80
     RDKit          3D

 32 33  0  0  0  0  0  0  0  0999 V2000
   12.2881    4.0224   12.9698 C   0  0  0  0  0  0  0  0  0  0  0  0
   13.4282    4.6446   13.7681 C   0  0  0  0  0  0  0  0  0  0  0  0
   14.8081    4.0624   13.4366 C   0  0  0  0  0  0  0  0  0  0  0  0
   14.8970    2.6614   13.9172 C   0  0  0  0  0  0  0  0  0  0  0  0
   14.7207    1.4974   13.2061 C   0  0  0  0  0  0  0  0  0  0  0  0
   14.4806    0.4207   14.0871 C   0  0  0  0  0  0  0  0  0  0  0  0
   14.1221   -0.8081   13.6833 O   0  0  0  0  0  0  0  0  0  0  0  0
   14.5657    0.7684   15.4183 C   0  0  0  0  0  0  0  0  0  0  0  0
   14.2502    0.0393   16.6199 C   0  0  0  0  0  0  0  0  0  0  0  0
   14.6352    0.3335   17.7536 O   0  0  0  0  0  0  0  0  0  0  0  0
   13.4160   -1.1812   16.5037 C   0  0  0  0  0  0  0  0  0  0  0  0
   13.9256   -2.3337   17.1143 C   0  0  0  0  0  0  0  0  0  0  0  0
   13.2542   -3.5407   16.9752 C   0  0  0  0  0  0  0  0  0  0  0  0
   12.0828   -3.6001   16.2369 C   0  0  0  0  0  0  0  0  0  0  0  0
   11.5654   -2.4637   15.6291 C   0  0  0  0  0  0  0  0  0  0  0  0
   12.2128   -1.2461   15.7814 C   0  0  0  0  0  0  0  0  0  0  0  0
   11.6296   -0.1534   15.2042 O   0  0  0  0  0  0  0  0  0  0  0  0
   15.1377    2.3599   15.5844 S   0  0  0  0  0  0  0  0  0  0  0  0
   12.4877    4.0709   11.8946 H   0  0  0  0  0  0  0  0  0  0  0  0
   12.1251    2.9765   13.2460 H   0  0  0  0  0  0  0  0  0  0  0  0
   11.3562    4.5632   13.1645 H   0  0  0  0  0  0  0  0  0  0  0  0
   13.2057    4.5666   14.8388 H   0  0  0  0  0  0  0  0  0  0  0  0
   13.4526    5.7169   13.5363 H   0  0  0  0  0  0  0  0  0  0  0  0
   15.5861    4.6766   13.9064 H   0  0  0  0  0  0  0  0  0  0  0  0
   14.9852    4.1085   12.3552 H   0  0  0  0  0  0  0  0  0  0  0  0
   14.6173    1.4626   12.1297 H   0  0  0  0  0  0  0  0  0  0  0  0
   14.1729   -0.8867   12.7161 H   0  0  0  0  0  0  0  0  0  0  0  0
   14.8519   -2.2933   17.6831 H   0  0  0  0  0  0  0  0  0  0  0  0
   13.6448   -4.4421   17.4425 H   0  0  0  0  0  0  0  0  0  0  0  0
   11.5654   -4.5484   16.1530 H   0  0  0  0  0  0  0  0  0  0  0  0
   10.6512   -2.5488   15.0466 H   0  0  0  0  0  0  0  0  0  0  0  0
   11.0640   -0.4663   14.4702 H   0  0  0  0  0  0  0  0  0  0  0  0
  1  2  1  0
  2  3  1  0
  3  4  1  0
  4  5  2  0
  5  6  1  0
  6  7  1  0
  6  8  2  0
  8  9  1  0
  9 10  2  0
  9 11  1  0
 11 12  2  0
 12 13  1  0
 13 14  2  0
 14 15  1  0
 15 16  2  0
 16 17  1  0
  8 18  1  0
 18  4  1  0
 16 11  1  0
  1 19  1  0
  1 20  1  0
  1 21  1  0
  2 22  1  0
  2 23  1  0
  3 24  1  0
  3 25  1  0
  5 26  1  0
  7 27  1  0
 12 28  1  0
 13 29  1  0
 14 30  1  0
 15 31  1  0
 17 32  1  0
M  END
>  <Energy>  (555) 
58.020481809708272

>  <compound_id>  (555) 
1864

>  <target_id>  (555) 
1

>  <reference_id>  (555) 
80

>  <inspiration_ids>  (555) 
[26, 80]

>  <energy_score>  (555) 
-68.24368735082459

>  <distance_score>  (555) 
1.9208977620204457

>  <path>  (555) 
/opt/xchem-fragalysis-2/maxwin/BulkDock/SCRATCH/505732/C1864-P80/C1864-P80.minimised.mol

>  <scratch_subdir>  (555) 
/opt/xchem-fragalysis-2/maxwin/BulkDock/SCRATCH/505732/C1864-P80

>  <fragmenstein_runtime>  (555) 
7.06646203994751

>  <fragmenstein_outcome>  (555) 
too moved

>  <fragmenstein_mode>  (555) 
expansion

>  <fragmenstein_error>  (555) 


$$$$
C1865-P26
     RDKit          3D

 63 65  0  0  0  0  0  0  0  0999 V2000
   12.5574   -4.8825   16.5721 C   0  0  0  0  0  0  0  0  0  0  0  0
   11.7824   -3.7276   16.0053 C   0  0  0  0  0  0  0  0  0  0  0  0
   12.2616   -2.4911   16.6916 C   0  0  0  0  0  0  0  0  0  0  0  0
   13.5104   -2.0732   16.0338 C   0  0  0  0  0  0  0  0  0  0  0  0
   14.7477   -2.6407   16.3470 C   0  0  0  0  0  0  0  0  0  0  0  0
   15.8675   -2.2369   15.6526 C   0  0  0  0  0  0  0  0  0  0  0  0
   15.7579   -1.1615   14.7793 C   0  0  0  0  0  0  0  0  0  0  0  0
   14.5240   -0.5156   14.5863 C   0  0  0  0  0  0  0  0  0  0  0  0
   14.4635    0.8896   14.0630 C   0  0  0  0  0  0  0  0  0  0  0  0
   13.5599    1.0450   12.8444 C   0  0  0  0  0  0  0  0  0  0  0  0
   14.1754    1.0905   11.5800 C   0  0  0  0  0  0  0  0  0  0  0  0
   13.5785    1.7808   10.5334 C   0  0  0  0  0  0  0  0  0  0  0  0
   12.3347    2.3629   10.7265 C   0  0  0  0  0  0  0  0  0  0  0  0
   11.6416    2.1325   11.9123 C   0  0  0  0  0  0  0  0  0  0  0  0
   12.2206    1.4078   12.9502 C   0  0  0  0  0  0  0  0  0  0  0  0
   14.3792    2.0581   15.1841 C   0  0  0  0  0  0  0  0  0  0  0  0
   14.4622    3.4571   14.4492 C   0  0  0  0  0  0  0  0  0  0  0  0
   15.8000    3.9312   13.8733 C   0  0  0  0  0  0  0  0  0  0  0  0
   16.1211    3.4656   12.4676 C   0  0  0  0  0  0  0  0  0  0  0  0
   15.7289    5.3640   13.8295 O   0  0  0  0  0  0  0  0  0  0  0  0
   13.0371    2.1209   15.9843 C   0  0  0  0  0  0  0  0  0  0  0  0
   13.1251    2.7183   17.3988 C   0  0  0  0  0  0  0  0  0  0  0  0
   14.2833    3.6650   17.6860 C   0  0  0  0  0  0  0  0  0  0  0  0
   15.6348    3.1627   17.1736 C   0  0  0  0  0  0  0  0  0  0  0  0
   16.4664    2.8398   18.2994 O   0  0  0  0  0  0  0  0  0  0  0  0
   15.5389    1.9167   16.2489 C   0  0  0  0  0  0  0  0  0  0  0  0
   15.4468    0.7542   17.1747 N   0  0  0  0  0  0  0  0  0  0  0  0
   13.3809   -1.0867   15.0812 C   0  0  0  0  0  0  0  0  0  0  0  0
   12.0694   -5.8184   16.3189 H   0  0  0  0  0  0  0  0  0  0  0  0
   12.6515   -4.7955   17.6582 H   0  0  0  0  0  0  0  0  0  0  0  0
   13.5658   -4.9276   16.1667 H   0  0  0  0  0  0  0  0  0  0  0  0
   11.8632   -3.6519   14.9167 H   0  0  0  0  0  0  0  0  0  0  0  0
   10.7368   -3.8628   16.2101 H   0  0  0  0  0  0  0  0  0  0  0  0
   11.5142   -1.6972   16.6047 H   0  0  0  0  0  0  0  0  0  0  0  0
   12.4696   -2.6614   17.7470 H   0  0  0  0  0  0  0  0  0  0  0  0
   14.8427   -3.4052   17.1123 H   0  0  0  0  0  0  0  0  0  0  0  0
   16.8324   -2.6986   15.8401 H   0  0  0  0  0  0  0  0  0  0  0  0
   16.6655   -0.7636   14.3294 H   0  0  0  0  0  0  0  0  0  0  0  0
   15.4744    1.0415   13.6645 H   0  0  0  0  0  0  0  0  0  0  0  0
   15.1851    0.7091   11.4409 H   0  0  0  0  0  0  0  0  0  0  0  0
   14.1000    1.8999    9.5876 H   0  0  0  0  0  0  0  0  0  0  0  0
   11.9001    2.9617    9.9327 H   0  0  0  0  0  0  0  0  0  0  0  0
   10.6741    2.5851   12.0659 H   0  0  0  0  0  0  0  0  0  0  0  0
   11.6693    1.3076   13.8766 H   0  0  0  0  0  0  0  0  0  0  0  0
   14.1315    4.2380   15.1430 H   0  0  0  0  0  0  0  0  0  0  0  0
   13.7039    3.5335   13.6628 H   0  0  0  0  0  0  0  0  0  0  0  0
   16.6368    3.6877   14.5305 H   0  0  0  0  0  0  0  0  0  0  0  0
   16.9775    4.0274   12.0741 H   0  0  0  0  0  0  0  0  0  0  0  0
   16.4021    2.4154   12.4277 H   0  0  0  0  0  0  0  0  0  0  0  0
   15.2960    3.6786   11.7835 H   0  0  0  0  0  0  0  0  0  0  0  0
   16.6045    5.6983   13.5679 H   0  0  0  0  0  0  0  0  0  0  0  0
   12.3001    2.7166   15.4314 H   0  0  0  0  0  0  0  0  0  0  0  0
   12.5828    1.1356   16.0952 H   0  0  0  0  0  0  0  0  0  0  0  0
   13.1787    1.8966   18.1206 H   0  0  0  0  0  0  0  0  0  0  0  0
   12.1866    3.2403   17.6012 H   0  0  0  0  0  0  0  0  0  0  0  0
   14.3242    3.8643   18.7641 H   0  0  0  0  0  0  0  0  0  0  0  0
   14.0606    4.6325   17.2208 H   0  0  0  0  0  0  0  0  0  0  0  0
   16.1476    3.9861   16.6687 H   0  0  0  0  0  0  0  0  0  0  0  0
   16.2154    1.9105   18.4960 H   0  0  0  0  0  0  0  0  0  0  0  0
   16.4998    1.8106   15.7306 H   0  0  0  0  0  0  0  0  0  0  0  0
   16.2035    0.1008   16.9661 H   0  0  0  0  0  0  0  0  0  0  0  0
   14.5969    0.2200   16.9983 H   0  0  0  0  0  0  0  0  0  0  0  0
   12.4028   -0.6770   14.8531 H   0  0  0  0  0  0  0  0  0  0  0  0
  1  2  1  0
  2  3  1  0
  3  4  1  0
  4  5  2  0
  5  6  1  0
  6  7  2  0
  7  8  1  0
  8  9  1  0
  9 10  1  0
 10 11  2  0
 11 12  1  0
 12 13  2  0
 13 14  1  0
 14 15  2  0
  9 16  1  0
 16 17  1  0
 17 18  1  0
 18 19  1  0
 18 20  1  0
 16 21  1  0
 21 22  1  0
 22 23  1  0
 23 24  1  0
 24 25  1  0
 24 26  1  0
 26 27  1  0
  8 28  2  0
 28  4  1  0
 15 10  1  0
 26 16  1  0
  1 29  1  0
  1 30  1  0
  1 31  1  0
  2 32  1  0
  2 33  1  0
  3 34  1  0
  3 35  1  0
  5 36  1  0
  6 37  1  0
  7 38  1  0
  9 39  1  0
 11 40  1  0
 12 41  1  0
 13 42  1  0
 14 43  1  0
 15 44  1  0
 17 45  1  0
 17 46  1  0
 18 47  1  0
 19 48  1  0
 19 49  1  0
 19 50  1  0
 20 51  1  0
 21 52  1  0
 21 53  1  0
 22 54  1  0
 22 55  1  0
 23 56  1  0
 23 57  1  0
 24 58  1  0
 25 59  1  0
 26 60  1  0
 27 61  1  0
 27 62  1  0
 28 63  1  0
M  END
>  <Energy>  (556) 
148.90154948593883

>  <compound_id>  (556) 
1865

>  <target_id>  (556) 
1

>  <reference_id>  (556) 
26

>  <inspiration_ids>  (556) 
[26, 81]

>  <energy_score>  (556) 
-59.06685813199465

>  <distance_score>  (556) 
2.193084755951203

>  <path>  (556) 
/opt/xchem-fragalysis-2/maxwin/BulkDock/SCRATCH/505732/C1865-P26/C1865-P26.minimised.mol

>  <scratch_subdir>  (556) 
/opt/xchem-fragalysis-2/maxwin/BulkDock/SCRATCH/505732/C1865-P26

>  <fragmenstein_runtime>  (556) 
10.281235456466675

>  <fragmenstein_outcome>  (556) 
too moved

>  <fragmenstein_mode>  (556) 
expansion

>  <fragmenstein_error>  (556) 


$$$$
C1865-P81
     RDKit          3D

 63 65  0  0  0  0  0  0  0  0999 V2000
   12.4935   -4.3981   16.7797 C   0  0  0  0  0  0  0  0  0  0  0  0
   13.2223   -3.9635   18.0421 C   0  0  0  0  0  0  0  0  0  0  0  0
   14.6478   -3.5052   17.8004 C   0  0  0  0  0  0  0  0  0  0  0  0
   14.7310   -2.6838   16.5471 C   0  0  0  0  0  0  0  0  0  0  0  0
   15.5669   -3.1193   15.5268 C   0  0  0  0  0  0  0  0  0  0  0  0
   15.6036   -2.4329   14.3248 C   0  0  0  0  0  0  0  0  0  0  0  0
   14.8188   -1.3018   14.1341 C   0  0  0  0  0  0  0  0  0  0  0  0
   14.0100   -0.8114   15.1631 C   0  0  0  0  0  0  0  0  0  0  0  0
   13.2725    0.5109   14.9744 C   0  0  0  0  0  0  0  0  0  0  0  0
   11.7490    0.3325   15.2065 C   0  0  0  0  0  0  0  0  0  0  0  0
   10.9034    1.3527   15.6721 C   0  0  0  0  0  0  0  0  0  0  0  0
    9.5617    1.1174   15.9781 C   0  0  0  0  0  0  0  0  0  0  0  0
    9.0166   -0.1374   15.7703 C   0  0  0  0  0  0  0  0  0  0  0  0
    9.7963   -1.1347   15.2067 C   0  0  0  0  0  0  0  0  0  0  0  0
   11.1392   -0.9020   14.9082 C   0  0  0  0  0  0  0  0  0  0  0  0
   14.0847    1.7595   15.6579 C   0  0  0  0  0  0  0  0  0  0  0  0
   13.7409    3.0449   14.7898 C   0  0  0  0  0  0  0  0  0  0  0  0
   14.5457    3.3791   13.5146 C   0  0  0  0  0  0  0  0  0  0  0  0
   14.5178    2.3529   12.3963 C   0  0  0  0  0  0  0  0  0  0  0  0
   14.0173    4.6053   12.9946 O   0  0  0  0  0  0  0  0  0  0  0  0
   13.5848    1.9998   17.1354 C   0  0  0  0  0  0  0  0  0  0  0  0
   14.5799    2.5831   18.1494 C   0  0  0  0  0  0  0  0  0  0  0  0
   15.5993    3.5206   17.5324 C   0  0  0  0  0  0  0  0  0  0  0  0
   16.3382    2.8944   16.3505 C   0  0  0  0  0  0  0  0  0  0  0  0
   17.6725    2.5637   16.7712 O   0  0  0  0  0  0  0  0  0  0  0  0
   15.6622    1.6128   15.7493 C   0  0  0  0  0  0  0  0  0  0  0  0
   16.1978    0.4968   16.5700 N   0  0  0  0  0  0  0  0  0  0  0  0
   13.9494   -1.5330   16.3613 C   0  0  0  0  0  0  0  0  0  0  0  0
   11.4616   -4.6431   17.0054 H   0  0  0  0  0  0  0  0  0  0  0  0
   12.9857   -5.2699   16.3536 H   0  0  0  0  0  0  0  0  0  0  0  0
   12.4290   -3.6304   16.0075 H   0  0  0  0  0  0  0  0  0  0  0  0
   13.2169   -4.7658   18.7874 H   0  0  0  0  0  0  0  0  0  0  0  0
   12.6804   -3.1339   18.4805 H   0  0  0  0  0  0  0  0  0  0  0  0
   15.0128   -2.9181   18.6514 H   0  0  0  0  0  0  0  0  0  0  0  0
   15.2984   -4.3853   17.7283 H   0  0  0  0  0  0  0  0  0  0  0  0
   16.1774   -4.0123   15.6414 H   0  0  0  0  0  0  0  0  0  0  0  0
   16.2381   -2.7944   13.5175 H   0  0  0  0  0  0  0  0  0  0  0  0
   14.8732   -0.7954   13.1739 H   0  0  0  0  0  0  0  0  0  0  0  0
   13.2980    0.6964   13.8960 H   0  0  0  0  0  0  0  0  0  0  0  0
   11.2521    2.3637   15.8361 H   0  0  0  0  0  0  0  0  0  0  0  0
    8.9442    1.9204   16.3736 H   0  0  0  0  0  0  0  0  0  0  0  0
    7.9789   -0.3266   16.0221 H   0  0  0  0  0  0  0  0  0  0  0  0
    9.3614   -2.0994   14.9568 H   0  0  0  0  0  0  0  0  0  0  0  0
   11.6974   -1.7148   14.4452 H   0  0  0  0  0  0  0  0  0  0  0  0
   13.7958    3.9338   15.4311 H   0  0  0  0  0  0  0  0  0  0  0  0
   12.6880    3.0231   14.4915 H   0  0  0  0  0  0  0  0  0  0  0  0
   15.5878    3.5927   13.7511 H   0  0  0  0  0  0  0  0  0  0  0  0
   14.9931    2.7612   11.4969 H   0  0  0  0  0  0  0  0  0  0  0  0
   15.0506    1.4406   12.6659 H   0  0  0  0  0  0  0  0  0  0  0  0
   13.4898    2.1048   12.1111 H   0  0  0  0  0  0  0  0  0  0  0  0
   13.1368    4.4285   12.6234 H   0  0  0  0  0  0  0  0  0  0  0  0
   12.7336    2.6859   17.1374 H   0  0  0  0  0  0  0  0  0  0  0  0
   13.2295    1.0593   17.5621 H   0  0  0  0  0  0  0  0  0  0  0  0
   15.0994    1.7719   18.6726 H   0  0  0  0  0  0  0  0  0  0  0  0
   14.0216    3.1128   18.9317 H   0  0  0  0  0  0  0  0  0  0  0  0
   16.3040    3.8531   18.3039 H   0  0  0  0  0  0  0  0  0  0  0  0
   15.0735    4.4203   17.1914 H   0  0  0  0  0  0  0  0  0  0  0  0
   16.4744    3.6632   15.5878 H   0  0  0  0  0  0  0  0  0  0  0  0
   17.6047    1.6074   16.9920 H   0  0  0  0  0  0  0  0  0  0  0  0
   16.0824    1.4628   14.7492 H   0  0  0  0  0  0  0  0  0  0  0  0
   16.3310   -0.3305   15.9845 H   0  0  0  0  0  0  0  0  0  0  0  0
   15.5251    0.2081   17.2778 H   0  0  0  0  0  0  0  0  0  0  0  0
   13.3049   -1.1926   17.1666 H   0  0  0  0  0  0  0  0  0  0  0  0
  1  2  1  0
  2  3  1  0
  3  4  1  0
  4  5  2  0
  5  6  1  0
  6  7  2  0
  7  8  1  0
  8  9  1  0
  9 10  1  0
 10 11  2  0
 11 12  1  0
 12 13  2  0
 13 14  1  0
 14 15  2  0
  9 16  1  0
 16 17  1  0
 17 18  1  0
 18 19  1  0
 18 20  1  0
 16 21  1  0
 21 22  1  0
 22 23  1  0
 23 24  1  0
 24 25  1  0
 24 26  1  0
 26 27  1  0
  8 28  2  0
 28  4  1  0
 15 10  1  0
 26 16  1  0
  1 29  1  0
  1 30  1  0
  1 31  1  0
  2 32  1  0
  2 33  1  0
  3 34  1  0
  3 35  1  0
  5 36  1  0
  6 37  1  0
  7 38  1  0
  9 39  1  0
 11 40  1  0
 12 41  1  0
 13 42  1  0
 14 43  1  0
 15 44  1  0
 17 45  1  0
 17 46  1  0
 18 47  1  0
 19 48  1  0
 19 49  1  0
 19 50  1  0
 20 51  1  0
 21 52  1  0
 21 53  1  0
 22 54  1  0
 22 55  1  0
 23 56  1  0
 23 57  1  0
 24 58  1  0
 25 59  1  0
 26 60  1  0
 27 61  1  0
 27 62  1  0
 28 63  1  0
M  END
>  <Energy>  (557) 
134.35804318376367

>  <compound_id>  (557) 
1865

>  <target_id>  (557) 
1

>  <reference_id>  (557) 
81

>  <inspiration_ids>  (557) 
[26, 81]

>  <energy_score>  (557) 
-73.61036443416799

>  <distance_score>  (557) 
1.8087135152262552

>  <path>  (557) 
/opt/xchem-fragalysis-2/maxwin/BulkDock/SCRATCH/505732/C1865-P81/C1865-P81.minimised.mol

>  <scratch_subdir>  (557) 
/opt/xchem-fragalysis-2/maxwin/BulkDock/SCRATCH/505732/C1865-P81

>  <fragmenstein_runtime>  (557) 
8.46937084197998

>  <fragmenstein_outcome>  (557) 
too moved

>  <fragmenstein_mode>  (557) 
expansion

>  <fragmenstein_error>  (557) 


$$$$
C1836-P26
     RDKit          3D

 51 54  0  0  0  0  0  0  0  0999 V2000
   17.7165    0.8787   15.6448 C   0  0  0  0  0  0  0  0  0  0  0  0
   16.5871    0.3018   16.5031 C   0  0  0  0  0  0  0  0  0  0  0  0
   16.6543    0.8338   17.9386 C   0  0  0  0  0  0  0  0  0  0  0  0
   15.2547    0.5126   15.8959 N   0  0  0  0  0  0  0  0  0  0  0  0
   14.7809    1.7920   15.6525 C   0  0  0  0  0  0  0  0  0  0  0  0
   15.3895    2.8089   15.9775 O   0  0  0  0  0  0  0  0  0  0  0  0
   13.4650    1.8212   14.8366 C   0  0  0  0  0  0  0  0  0  0  0  0
   12.9662    3.2414   14.6053 C   0  0  0  0  0  0  0  0  0  0  0  0
   13.7952    3.7478   13.4291 C   0  0  0  0  0  0  0  0  0  0  0  0
   14.3798    2.5064   12.7724 C   0  0  0  0  0  0  0  0  0  0  0  0
   13.7507    1.3590   13.4356 N   0  0  0  0  0  0  0  0  0  0  0  0
   12.4373    0.9446   15.5843 C   0  0  0  0  0  0  0  0  0  0  0  0
   12.9900   -0.4358   15.8000 C   0  0  0  0  0  0  0  0  0  0  0  0
   12.1950   -1.5765   15.9435 C   0  0  0  0  0  0  0  0  0  0  0  0
   12.8042   -2.8318   16.0600 C   0  0  0  0  0  0  0  0  0  0  0  0
   14.1719   -2.9591   15.7936 C   0  0  0  0  0  0  0  0  0  0  0  0
   14.8644   -1.8243   15.3914 C   0  0  0  0  0  0  0  0  0  0  0  0
   15.4604   -1.7629   14.0483 N   0  0  0  0  0  0  0  0  0  0  0  0
   16.6364   -2.3657   13.5517 C   0  0  0  0  0  0  0  0  0  0  0  0
   17.6757   -2.7270   14.3955 C   0  0  0  0  0  0  0  0  0  0  0  0
   18.8851   -3.1738   13.8659 C   0  0  0  0  0  0  0  0  0  0  0  0
   19.0677   -3.2669   12.4873 C   0  0  0  0  0  0  0  0  0  0  0  0
   18.0477   -2.8923   11.6269 C   0  0  0  0  0  0  0  0  0  0  0  0
   16.8517   -2.4315   12.1601 C   0  0  0  0  0  0  0  0  0  0  0  0
   15.8614   -2.0880   11.2852 O   0  0  0  0  0  0  0  0  0  0  0  0
   14.3684   -0.5915   15.7909 C   0  0  0  0  0  0  0  0  0  0  0  0
   18.6908    0.5690   16.0378 H   0  0  0  0  0  0  0  0  0  0  0  0
   17.6421    0.5264   14.6110 H   0  0  0  0  0  0  0  0  0  0  0  0
   17.7057    1.9724   15.6233 H   0  0  0  0  0  0  0  0  0  0  0  0
   16.7745   -0.7735   16.5798 H   0  0  0  0  0  0  0  0  0  0  0  0
   16.5738    1.9237   17.9836 H   0  0  0  0  0  0  0  0  0  0  0  0
   15.8439    0.4144   18.5447 H   0  0  0  0  0  0  0  0  0  0  0  0
   17.6046    0.5543   18.4063 H   0  0  0  0  0  0  0  0  0  0  0  0
   13.0758    3.8927   15.4787 H   0  0  0  0  0  0  0  0  0  0  0  0
   11.9056    3.2419   14.3224 H   0  0  0  0  0  0  0  0  0  0  0  0
   13.1661    4.3147   12.7346 H   0  0  0  0  0  0  0  0  0  0  0  0
   14.5959    4.4119   13.7730 H   0  0  0  0  0  0  0  0  0  0  0  0
   15.4659    2.4691   12.9134 H   0  0  0  0  0  0  0  0  0  0  0  0
   14.1887    2.4876   11.6947 H   0  0  0  0  0  0  0  0  0  0  0  0
   12.8582    1.1628   12.9813 H   0  0  0  0  0  0  0  0  0  0  0  0
   11.5029    0.8855   15.0126 H   0  0  0  0  0  0  0  0  0  0  0  0
   12.2112    1.3930   16.5573 H   0  0  0  0  0  0  0  0  0  0  0  0
   11.1131   -1.4980   15.9597 H   0  0  0  0  0  0  0  0  0  0  0  0
   12.2037   -3.7219   16.2343 H   0  0  0  0  0  0  0  0  0  0  0  0
   14.6305   -3.9377   15.7148 H   0  0  0  0  0  0  0  0  0  0  0  0
   15.6367   -0.7576   13.8948 H   0  0  0  0  0  0  0  0  0  0  0  0
   17.5650   -2.6683   15.4729 H   0  0  0  0  0  0  0  0  0  0  0  0
   19.6919   -3.4615   14.5359 H   0  0  0  0  0  0  0  0  0  0  0  0
   20.0109   -3.6277   12.0859 H   0  0  0  0  0  0  0  0  0  0  0  0
   18.1727   -2.9638   10.5510 H   0  0  0  0  0  0  0  0  0  0  0  0
   15.0652   -2.0203   11.8500 H   0  0  0  0  0  0  0  0  0  0  0  0
  1  2  1  0
  2  3  1  0
  2  4  1  0
  4  5  1  0
  5  6  2  0
  5  7  1  0
  7  8  1  0
  8  9  1  0
  9 10  1  0
 10 11  1  0
  7 12  1  0
 12 13  1  0
 13 14  2  0
 14 15  1  0
 15 16  2  0
 16 17  1  0
 17 18  1  0
 18 19  1  0
 19 20  2  0
 20 21  1  0
 21 22  2  0
 22 23  1  0
 23 24  2  0
 24 25  1  0
 17 26  2  0
 26  4  1  0
 11  7  1  0
 26 13  1  0
 24 19  1  0
  1 27  1  0
  1 28  1  0
  1 29  1  0
  2 30  1  0
  3 31  1  0
  3 32  1  0
  3 33  1  0
  8 34  1  0
  8 35  1  0
  9 36  1  0
  9 37  1  0
 10 38  1  0
 10 39  1  0
 11 40  1  0
 12 41  1  0
 12 42  1  0
 14 43  1  0
 15 44  1  0
 16 45  1  0
 18 46  1  0
 20 47  1  0
 21 48  1  0
 22 49  1  0
 23 50  1  0
 25 51  1  0
M  END
>  <Energy>  (558) 
135.75139089930917

>  <compound_id>  (558) 
1836

>  <target_id>  (558) 
1

>  <reference_id>  (558) 
26

>  <inspiration_ids>  (558) 
[26, 83]

>  <energy_score>  (558) 
-73.99055946014207

>  <distance_score>  (558) 
1.6933445975828338

>  <path>  (558) 
/opt/xchem-fragalysis-2/maxwin/BulkDock/SCRATCH/505732/C1836-P26/C1836-P26.minimised.mol

>  <scratch_subdir>  (558) 
/opt/xchem-fragalysis-2/maxwin/BulkDock/SCRATCH/505732/C1836-P26

>  <fragmenstein_runtime>  (558) 
3.6909472942352295

>  <fragmenstein_outcome>  (558) 
too moved

>  <fragmenstein_mode>  (558) 
expansion

>  <fragmenstein_error>  (558) 


$$$$
C1836-P83
     RDKit          3D

 51 54  0  0  0  0  0  0  0  0999 V2000
   17.7730    0.0521   15.7643 C   0  0  0  0  0  0  0  0  0  0  0  0
   16.4806   -0.6553   16.2026 C   0  0  0  0  0  0  0  0  0  0  0  0
   16.2175   -0.3764   17.6850 C   0  0  0  0  0  0  0  0  0  0  0  0
   15.3139   -0.3326   15.3429 N   0  0  0  0  0  0  0  0  0  0  0  0
   15.0121    1.0141   15.1098 C   0  0  0  0  0  0  0  0  0  0  0  0
   15.6522    1.9572   15.5905 O   0  0  0  0  0  0  0  0  0  0  0  0
   13.8182    1.2806   14.1626 C   0  0  0  0  0  0  0  0  0  0  0  0
   13.4601    2.7678   14.0799 C   0  0  0  0  0  0  0  0  0  0  0  0
   14.4426    3.3480   13.0721 C   0  0  0  0  0  0  0  0  0  0  0  0
   15.0157    2.1488   12.3329 C   0  0  0  0  0  0  0  0  0  0  0  0
   14.2265    0.9888   12.7583 N   0  0  0  0  0  0  0  0  0  0  0  0
   12.6175    0.4610   14.6344 C   0  0  0  0  0  0  0  0  0  0  0  0
   12.9803   -0.9696   14.9074 C   0  0  0  0  0  0  0  0  0  0  0  0
   11.9467   -1.9206   14.9802 C   0  0  0  0  0  0  0  0  0  0  0  0
   12.2409   -3.2618   15.1744 C   0  0  0  0  0  0  0  0  0  0  0  0
   13.5691   -3.6687   15.1497 C   0  0  0  0  0  0  0  0  0  0  0  0
   14.6107   -2.7323   14.9850 C   0  0  0  0  0  0  0  0  0  0  0  0
   15.8727   -3.2364   14.5608 N   0  0  0  0  0  0  0  0  0  0  0  0
   16.6955   -2.7442   13.5033 C   0  0  0  0  0  0  0  0  0  0  0  0
   18.0562   -2.6065   13.7954 C   0  0  0  0  0  0  0  0  0  0  0  0
   18.9925   -2.3125   12.8085 C   0  0  0  0  0  0  0  0  0  0  0  0
   18.5915   -2.2260   11.4849 C   0  0  0  0  0  0  0  0  0  0  0  0
   17.2560   -2.4091   11.1603 C   0  0  0  0  0  0  0  0  0  0  0  0
   16.3175   -2.6489   12.1588 C   0  0  0  0  0  0  0  0  0  0  0  0
   15.0410   -2.8317   11.7332 O   0  0  0  0  0  0  0  0  0  0  0  0
   14.3241   -1.3532   15.0720 C   0  0  0  0  0  0  0  0  0  0  0  0
   18.6445   -0.4567   16.1913 H   0  0  0  0  0  0  0  0  0  0  0  0
   17.8784    0.0603   14.6757 H   0  0  0  0  0  0  0  0  0  0  0  0
   17.8198    1.0894   16.1096 H   0  0  0  0  0  0  0  0  0  0  0  0
   16.6860   -1.7223   16.1553 H   0  0  0  0  0  0  0  0  0  0  0  0
   16.0795    0.6888   17.8867 H   0  0  0  0  0  0  0  0  0  0  0  0
   15.3279   -0.9124   18.0257 H   0  0  0  0  0  0  0  0  0  0  0  0
   17.0621   -0.7172   18.2942 H   0  0  0  0  0  0  0  0  0  0  0  0
   13.5203    3.2931   15.0377 H   0  0  0  0  0  0  0  0  0  0  0  0
   12.4396    2.9025   13.6975 H   0  0  0  0  0  0  0  0  0  0  0  0
   13.9307    4.0362   12.3910 H   0  0  0  0  0  0  0  0  0  0  0  0
   15.2397    3.9054   13.5761 H   0  0  0  0  0  0  0  0  0  0  0  0
   16.0691    1.9998   12.5960 H   0  0  0  0  0  0  0  0  0  0  0  0
   14.9663    2.2786   11.2471 H   0  0  0  0  0  0  0  0  0  0  0  0
   13.3909    0.9256   12.1787 H   0  0  0  0  0  0  0  0  0  0  0  0
   11.8306    0.4920   13.8680 H   0  0  0  0  0  0  0  0  0  0  0  0
   12.1813    0.8935   15.5386 H   0  0  0  0  0  0  0  0  0  0  0  0
   10.9073   -1.6140   14.8696 H   0  0  0  0  0  0  0  0  0  0  0  0
   11.4460   -4.0000   15.2517 H   0  0  0  0  0  0  0  0  0  0  0  0
   13.7815   -4.7361   15.1734 H   0  0  0  0  0  0  0  0  0  0  0  0
   15.8765   -4.2555   14.5177 H   0  0  0  0  0  0  0  0  0  0  0  0
   18.4031   -2.7440   14.8168 H   0  0  0  0  0  0  0  0  0  0  0  0
   20.0396   -2.1903   13.0712 H   0  0  0  0  0  0  0  0  0  0  0  0
   19.3193   -2.0265   10.7037 H   0  0  0  0  0  0  0  0  0  0  0  0
   16.9348   -2.3596   10.1244 H   0  0  0  0  0  0  0  0  0  0  0  0
   14.4871   -2.7620   12.5313 H   0  0  0  0  0  0  0  0  0  0  0  0
  1  2  1  0
  2  3  1  0
  2  4  1  0
  4  5  1  0
  5  6  2  0
  5  7  1  0
  7  8  1  0
  8  9  1  0
  9 10  1  0
 10 11  1  0
  7 12  1  0
 12 13  1  0
 13 14  2  0
 14 15  1  0
 15 16  2  0
 16 17  1  0
 17 18  1  0
 18 19  1  0
 19 20  2  0
 20 21  1  0
 21 22  2  0
 22 23  1  0
 23 24  2  0
 24 25  1  0
 17 26  2  0
 26  4  1  0
 11  7  1  0
 26 13  1  0
 24 19  1  0
  1 27  1  0
  1 28  1  0
  1 29  1  0
  2 30  1  0
  3 31  1  0
  3 32  1  0
  3 33  1  0
  8 34  1  0
  8 35  1  0
  9 36  1  0
  9 37  1  0
 10 38  1  0
 10 39  1  0
 11 40  1  0
 12 41  1  0
 12 42  1  0
 14 43  1  0
 15 44  1  0
 16 45  1  0
 18 46  1  0
 20 47  1  0
 21 48  1  0
 22 49  1  0
 23 50  1  0
 25 51  1  0
M  END
>  <Energy>  (559) 
116.42652775464563

>  <compound_id>  (559) 
1836

>  <target_id>  (559) 
1

>  <reference_id>  (559) 
83

>  <inspiration_ids>  (559) 
[26, 83]

>  <energy_score>  (559) 
-93.31542260480711

>  <distance_score>  (559) 
1.7265396664022086

>  <path>  (559) 
/opt/xchem-fragalysis-2/maxwin/BulkDock/SCRATCH/505732/C1836-P83/C1836-P83.minimised.mol

>  <scratch_subdir>  (559) 
/opt/xchem-fragalysis-2/maxwin/BulkDock/SCRATCH/505732/C1836-P83

>  <fragmenstein_runtime>  (559) 
4.257565498352051

>  <fragmenstein_outcome>  (559) 
too moved

>  <fragmenstein_mode>  (559) 
expansion

>  <fragmenstein_error>  (559) 


$$$$
C1867-P26
     RDKit          3D

 50 52  0  0  0  0  0  0  0  0999 V2000
   12.5909    4.6946   13.9629 C   0  0  0  0  0  0  0  0  0  0  0  0
   13.0932    3.9206   12.7513 C   0  0  0  0  0  0  0  0  0  0  0  0
   14.5892    3.5895   12.7776 C   0  0  0  0  0  0  0  0  0  0  0  0
   14.8513    2.5175   13.7894 C   0  0  0  0  0  0  0  0  0  0  0  0
   15.1699    2.9359   15.0954 C   0  0  0  0  0  0  0  0  0  0  0  0
   15.0719    2.0737   16.1866 C   0  0  0  0  0  0  0  0  0  0  0  0
   14.7140    0.7608   15.9802 C   0  0  0  0  0  0  0  0  0  0  0  0
   14.3285   -0.0859   17.0250 N   0  0  0  0  0  0  0  0  0  0  0  0
   13.5602   -1.2628   16.8840 C   0  0  0  0  0  0  0  0  0  0  0  0
   14.0103   -2.4137   17.5287 C   0  0  0  0  0  0  0  0  0  0  0  0
   13.3589   -3.6245   17.3300 C   0  0  0  0  0  0  0  0  0  0  0  0
   12.2867   -3.7232   16.4484 C   0  0  0  0  0  0  0  0  0  0  0  0
   11.8274   -2.6011   15.7736 C   0  0  0  0  0  0  0  0  0  0  0  0
   12.4401   -1.3754   16.0169 C   0  0  0  0  0  0  0  0  0  0  0  0
   11.9093   -0.2641   15.4051 O   0  0  0  0  0  0  0  0  0  0  0  0
   14.5759    0.3337   14.6678 C   0  0  0  0  0  0  0  0  0  0  0  0
   14.5963    1.1673   13.5506 C   0  0  0  0  0  0  0  0  0  0  0  0
   14.1929    0.5327   12.2327 C   0  0  0  0  0  0  0  0  0  0  0  0
   15.2472   -0.4711   11.9195 C   0  0  0  0  0  0  0  0  0  0  0  0
   16.2226   -0.2586   11.0231 N   0  0  0  0  0  0  0  0  0  0  0  0
   17.2062   -1.1726   11.4297 O   0  0  0  0  0  0  0  0  0  0  0  0
   16.6948   -1.8253   12.5151 C   0  0  0  0  0  0  0  0  0  0  0  0
   17.6507   -2.3914   13.5054 C   0  0  0  0  0  0  0  0  0  0  0  0
   17.7041   -1.4680   14.7313 C   0  0  0  0  0  0  0  0  0  0  0  0
   19.0184   -2.5769   12.9817 N   0  0  0  0  0  0  0  0  0  0  0  0
   15.4220   -1.5903   12.6968 N   0  0  0  0  0  0  0  0  0  0  0  0
   11.5608    5.0253   13.7933 H   0  0  0  0  0  0  0  0  0  0  0  0
   13.2038    5.5826   14.1465 H   0  0  0  0  0  0  0  0  0  0  0  0
   12.5896    4.0768   14.8652 H   0  0  0  0  0  0  0  0  0  0  0  0
   12.9088    4.5418   11.8655 H   0  0  0  0  0  0  0  0  0  0  0  0
   12.4863    3.0163   12.6229 H   0  0  0  0  0  0  0  0  0  0  0  0
   14.9220    3.2600   11.7872 H   0  0  0  0  0  0  0  0  0  0  0  0
   15.1773    4.4895   12.9970 H   0  0  0  0  0  0  0  0  0  0  0  0
   15.3770    3.9868   15.2938 H   0  0  0  0  0  0  0  0  0  0  0  0
   15.1954    2.4648   17.1916 H   0  0  0  0  0  0  0  0  0  0  0  0
   14.8674    0.0071   17.8747 H   0  0  0  0  0  0  0  0  0  0  0  0
   14.8711   -2.3758   18.1903 H   0  0  0  0  0  0  0  0  0  0  0  0
   13.6897   -4.4916   17.8809 H   0  0  0  0  0  0  0  0  0  0  0  0
   11.7955   -4.6817   16.3172 H   0  0  0  0  0  0  0  0  0  0  0  0
   10.9847   -2.6931   15.0944 H   0  0  0  0  0  0  0  0  0  0  0  0
   11.3385   -0.5573   14.6736 H   0  0  0  0  0  0  0  0  0  0  0  0
   14.3373   -0.7146   14.5074 H   0  0  0  0  0  0  0  0  0  0  0  0
   14.1082    1.2652   11.4259 H   0  0  0  0  0  0  0  0  0  0  0  0
   13.2154    0.0552   12.3443 H   0  0  0  0  0  0  0  0  0  0  0  0
   17.2868   -3.3703   13.8323 H   0  0  0  0  0  0  0  0  0  0  0  0
   17.9584   -0.4372   14.4580 H   0  0  0  0  0  0  0  0  0  0  0  0
   18.4492   -1.8215   15.4532 H   0  0  0  0  0  0  0  0  0  0  0  0
   16.7409   -1.4579   15.2498 H   0  0  0  0  0  0  0  0  0  0  0  0
   19.3772   -1.6698   12.6819 H   0  0  0  0  0  0  0  0  0  0  0  0
   18.9659   -3.1474   12.1379 H   0  0  0  0  0  0  0  0  0  0  0  0
  1  2  1  0
  2  3  1  0
  3  4  1  0
  4  5  2  0
  5  6  1  0
  6  7  2  0
  7  8  1  0
  8  9  1  0
  9 10  2  0
 10 11  1  0
 11 12  2  0
 12 13  1  0
 13 14  2  0
 14 15  1  0
  7 16  1  0
 16 17  2  0
 17 18  1  0
 18 19  1  0
 19 20  2  0
 20 21  1  0
 21 22  1  0
 22 23  1  0
 23 24  1  0
 23 25  1  0
 22 26  2  0
 17  4  1  0
 26 19  1  0
 14  9  1  0
  1 27  1  0
  1 28  1  0
  1 29  1  0
  2 30  1  0
  2 31  1  0
  3 32  1  0
  3 33  1  0
  5 34  1  0
  6 35  1  0
  8 36  1  0
 10 37  1  0
 11 38  1  0
 12 39  1  0
 13 40  1  0
 15 41  1  0
 16 42  1  0
 18 43  1  0
 18 44  1  0
 23 45  1  0
 24 46  1  0
 24 47  1  0
 24 48  1  0
 25 49  1  0
 25 50  1  0
M  END
>  <Energy>  (560) 
116.80971459977597

>  <compound_id>  (560) 
1867

>  <target_id>  (560) 
1

>  <reference_id>  (560) 
26

>  <inspiration_ids>  (560) 
[26, 97]

>  <energy_score>  (560) 
-20.660788022204855

>  <distance_score>  (560) 
1.8233725107021568

>  <path>  (560) 
/opt/xchem-fragalysis-2/maxwin/BulkDock/SCRATCH/505732/C1867-P26/C1867-P26.minimised.mol

>  <scratch_subdir>  (560) 
/opt/xchem-fragalysis-2/maxwin/BulkDock/SCRATCH/505732/C1867-P26

>  <fragmenstein_runtime>  (560) 
29.958858013153076

>  <fragmenstein_outcome>  (560) 
too moved

>  <fragmenstein_mode>  (560) 
expansion

>  <fragmenstein_error>  (560) 


$$$$
C1867-P97
     RDKit          3D

 50 52  0  0  0  0  0  0  0  0999 V2000
   12.5944    4.6669   14.0765 C   0  0  0  0  0  0  0  0  0  0  0  0
   13.0812    3.9244   12.8391 C   0  0  0  0  0  0  0  0  0  0  0  0
   14.5770    3.5921   12.8399 C   0  0  0  0  0  0  0  0  0  0  0  0
   14.8526    2.4976   13.8242 C   0  0  0  0  0  0  0  0  0  0  0  0
   15.1977    2.8832   15.1337 C   0  0  0  0  0  0  0  0  0  0  0  0
   15.1390    1.9900   16.2039 C   0  0  0  0  0  0  0  0  0  0  0  0
   14.7839    0.6801   15.9738 C   0  0  0  0  0  0  0  0  0  0  0  0
   14.4718   -0.2099   17.0081 N   0  0  0  0  0  0  0  0  0  0  0  0
   13.7517   -1.4185   16.8622 C   0  0  0  0  0  0  0  0  0  0  0  0
   14.2704   -2.5682   17.4646 C   0  0  0  0  0  0  0  0  0  0  0  0
   13.6332   -3.7949   17.3081 C   0  0  0  0  0  0  0  0  0  0  0  0
   12.4947   -3.8986   16.5140 C   0  0  0  0  0  0  0  0  0  0  0  0
   11.9875   -2.7870   15.8509 C   0  0  0  0  0  0  0  0  0  0  0  0
   12.5920   -1.5507   16.0529 C   0  0  0  0  0  0  0  0  0  0  0  0
   12.0005   -0.4500   15.4772 O   0  0  0  0  0  0  0  0  0  0  0  0
   14.5967    0.2935   14.6559 C   0  0  0  0  0  0  0  0  0  0  0  0
   14.5956    1.1535   13.5587 C   0  0  0  0  0  0  0  0  0  0  0  0
   14.1836    0.5445   12.2321 C   0  0  0  0  0  0  0  0  0  0  0  0
   15.2363   -0.4553   11.8944 C   0  0  0  0  0  0  0  0  0  0  0  0
   16.2197   -0.2180   11.0133 N   0  0  0  0  0  0  0  0  0  0  0  0
   17.1995   -1.1435   11.4019 O   0  0  0  0  0  0  0  0  0  0  0  0
   16.6790   -1.8283   12.4627 C   0  0  0  0  0  0  0  0  0  0  0  0
   17.6287   -2.4272   13.4399 C   0  0  0  0  0  0  0  0  0  0  0  0
   17.7088   -1.5222   14.6776 C   0  0  0  0  0  0  0  0  0  0  0  0
   18.9886   -2.6339   12.9048 N   0  0  0  0  0  0  0  0  0  0  0  0
   15.4047   -1.5977   12.6411 N   0  0  0  0  0  0  0  0  0  0  0  0
   11.5618    5.0001   13.9293 H   0  0  0  0  0  0  0  0  0  0  0  0
   13.2088    5.5510   14.2739 H   0  0  0  0  0  0  0  0  0  0  0  0
   12.6066    4.0266   14.9629 H   0  0  0  0  0  0  0  0  0  0  0  0
   12.8865    4.5679   11.9717 H   0  0  0  0  0  0  0  0  0  0  0  0
   12.4727    3.0235   12.6953 H   0  0  0  0  0  0  0  0  0  0  0  0
   14.8973    3.2849   11.8382 H   0  0  0  0  0  0  0  0  0  0  0  0
   15.1680    4.4869   13.0721 H   0  0  0  0  0  0  0  0  0  0  0  0
   15.4086    3.9292   15.3533 H   0  0  0  0  0  0  0  0  0  0  0  0
   15.3016    2.3523   17.2139 H   0  0  0  0  0  0  0  0  0  0  0  0
   15.0884   -0.1534   17.8078 H   0  0  0  0  0  0  0  0  0  0  0  0
   15.1698   -2.5147   18.0721 H   0  0  0  0  0  0  0  0  0  0  0  0
   14.0230   -4.6661   17.8231 H   0  0  0  0  0  0  0  0  0  0  0  0
   11.9861   -4.8548   16.4417 H   0  0  0  0  0  0  0  0  0  0  0  0
   11.1035   -2.8942   15.2293 H   0  0  0  0  0  0  0  0  0  0  0  0
   11.4491   -0.7520   14.7335 H   0  0  0  0  0  0  0  0  0  0  0  0
   14.3566   -0.7500   14.4720 H   0  0  0  0  0  0  0  0  0  0  0  0
   14.0935    1.2911   11.4391 H   0  0  0  0  0  0  0  0  0  0  0  0
   13.2079    0.0648   12.3449 H   0  0  0  0  0  0  0  0  0  0  0  0
   17.2453   -3.4030   13.7546 H   0  0  0  0  0  0  0  0  0  0  0  0
   17.9766   -0.4917   14.4168 H   0  0  0  0  0  0  0  0  0  0  0  0
   18.4548   -1.8977   15.3875 H   0  0  0  0  0  0  0  0  0  0  0  0
   16.7512   -1.5056   15.2051 H   0  0  0  0  0  0  0  0  0  0  0  0
   19.3622   -1.7323   12.6070 H   0  0  0  0  0  0  0  0  0  0  0  0
   18.9202   -3.2007   12.0599 H   0  0  0  0  0  0  0  0  0  0  0  0
  1  2  1  0
  2  3  1  0
  3  4  1  0
  4  5  2  0
  5  6  1  0
  6  7  2  0
  7  8  1  0
  8  9  1  0
  9 10  2  0
 10 11  1  0
 11 12  2  0
 12 13  1  0
 13 14  2  0
 14 15  1  0
  7 16  1  0
 16 17  2  0
 17 18  1  0
 18 19  1  0
 19 20  2  0
 20 21  1  0
 21 22  1  0
 22 23  1  0
 23 24  1  0
 23 25  1  0
 22 26  2  0
 17  4  1  0
 26 19  1  0
 14  9  1  0
  1 27  1  0
  1 28  1  0
  1 29  1  0
  2 30  1  0
  2 31  1  0
  3 32  1  0
  3 33  1  0
  5 34  1  0
  6 35  1  0
  8 36  1  0
 10 37  1  0
 11 38  1  0
 12 39  1  0
 13 40  1  0
 15 41  1  0
 16 42  1  0
 18 43  1  0
 18 44  1  0
 23 45  1  0
 24 46  1  0
 24 47  1  0
 24 48  1  0
 25 49  1  0
 25 50  1  0
M  END
>  <Energy>  (561) 
115.96791398803468

>  <compound_id>  (561) 
1867

>  <target_id>  (561) 
1

>  <reference_id>  (561) 
97

>  <inspiration_ids>  (561) 
[26, 97]

>  <energy_score>  (561) 
-21.502588633948477

>  <distance_score>  (561) 
1.84898412376548

>  <path>  (561) 
/opt/xchem-fragalysis-2/maxwin/BulkDock/SCRATCH/505732/C1867-P97/C1867-P97.minimised.mol

>  <scratch_subdir>  (561) 
/opt/xchem-fragalysis-2/maxwin/BulkDock/SCRATCH/505732/C1867-P97

>  <fragmenstein_runtime>  (561) 
29.604130506515503

>  <fragmenstein_outcome>  (561) 
too moved

>  <fragmenstein_mode>  (561) 
expansion

>  <fragmenstein_error>  (561) 


$$$$
C1869-P26
     RDKit          3D

 44 47  0  0  0  0  0  0  0  0999 V2000
   14.8193    2.3932   16.8301 C   0  0  0  0  0  0  0  0  0  0  0  0
   15.5431    1.0549   16.8098 C   0  0  0  0  0  0  0  0  0  0  0  0
   14.7281    0.0712   17.5601 N   0  0  0  0  0  0  0  0  0  0  0  0
   14.5026   -1.0773   16.6669 C   0  0  0  0  0  0  0  0  0  0  0  0
   15.3292   -0.8222   15.4550 C   0  0  0  0  0  0  0  0  0  0  0  0
   15.7805    0.4380   15.4746 C   0  0  0  0  0  0  0  0  0  0  0  0
   15.9468    1.1872   14.2012 C   0  0  0  0  0  0  0  0  0  0  0  0
   15.4049    0.8424   13.2274 O   0  0  0  0  0  0  0  0  0  0  0  0
   16.8093    2.4367   14.4770 N   0  0  0  0  0  0  0  0  0  0  0  0
   17.0955    3.5268   13.6735 C   0  0  0  0  0  0  0  0  0  0  0  0
   16.3973    3.7342   12.4868 C   0  0  0  0  0  0  0  0  0  0  0  0
   16.6686    4.8715   11.7219 C   0  0  0  0  0  0  0  0  0  0  0  0
   17.6184    5.8015   12.1523 C   0  0  0  0  0  0  0  0  0  0  0  0
   18.2995    5.6051   13.3553 C   0  0  0  0  0  0  0  0  0  0  0  0
   18.0275    4.4705   14.1157 C   0  0  0  0  0  0  0  0  0  0  0  0
   18.6605    4.2595   15.3132 O   0  0  0  0  0  0  0  0  0  0  0  0
   14.7316   -2.4191   17.3909 C   0  0  0  0  0  0  0  0  0  0  0  0
   13.8005   -3.4443   16.7357 C   0  0  0  0  0  0  0  0  0  0  0  0
   12.7062   -2.5733   16.2113 C   0  0  0  0  0  0  0  0  0  0  0  0
   11.4931   -2.9721   15.7034 C   0  0  0  0  0  0  0  0  0  0  0  0
   10.6182   -1.9908   15.2414 C   0  0  0  0  0  0  0  0  0  0  0  0
   10.9654   -0.6357   15.2529 C   0  0  0  0  0  0  0  0  0  0  0  0
   12.2089   -0.2449   15.7316 C   0  0  0  0  0  0  0  0  0  0  0  0
   13.0671   -1.2227   16.2241 C   0  0  0  0  0  0  0  0  0  0  0  0
   13.9632    2.4187   16.1496 H   0  0  0  0  0  0  0  0  0  0  0  0
   14.4516    2.6245   17.8373 H   0  0  0  0  0  0  0  0  0  0  0  0
   15.4848    3.2173   16.5569 H   0  0  0  0  0  0  0  0  0  0  0  0
   16.5048    1.1681   17.3264 H   0  0  0  0  0  0  0  0  0  0  0  0
   15.2617   -0.2366   18.3699 H   0  0  0  0  0  0  0  0  0  0  0  0
   15.2524   -1.4254   14.5570 H   0  0  0  0  0  0  0  0  0  0  0  0
   17.1940    2.3822   15.4107 H   0  0  0  0  0  0  0  0  0  0  0  0
   15.6486    3.0295   12.1375 H   0  0  0  0  0  0  0  0  0  0  0  0
   16.1334    5.0319   10.7889 H   0  0  0  0  0  0  0  0  0  0  0  0
   17.8208    6.6837   11.5499 H   0  0  0  0  0  0  0  0  0  0  0  0
   19.0250    6.3437   13.6802 H   0  0  0  0  0  0  0  0  0  0  0  0
   19.2907    4.9860   15.4529 H   0  0  0  0  0  0  0  0  0  0  0  0
   15.7777   -2.7456   17.3756 H   0  0  0  0  0  0  0  0  0  0  0  0
   14.4442   -2.3353   18.4498 H   0  0  0  0  0  0  0  0  0  0  0  0
   14.3203   -3.9623   15.9301 H   0  0  0  0  0  0  0  0  0  0  0  0
   13.4307   -4.1678   17.4674 H   0  0  0  0  0  0  0  0  0  0  0  0
   11.2138   -4.0177   15.6697 H   0  0  0  0  0  0  0  0  0  0  0  0
    9.6537   -2.2903   14.8407 H   0  0  0  0  0  0  0  0  0  0  0  0
   10.2776    0.0981   14.8422 H   0  0  0  0  0  0  0  0  0  0  0  0
   12.5040    0.7962   15.6971 H   0  0  0  0  0  0  0  0  0  0  0  0
  1  2  1  0
  2  3  1  0
  3  4  1  0
  4  5  1  0
  5  6  2  0
  6  7  1  0
  7  8  2  0
  7  9  1  0
  9 10  1  0
 10 11  2  0
 11 12  1  0
 12 13  2  0
 13 14  1  0
 14 15  2  0
 15 16  1  0
  4 17  1  0
 17 18  1  0
 18 19  1  0
 19 20  2  0
 20 21  1  0
 21 22  2  0
 22 23  1  0
 23 24  2  0
  6  2  1  0
 15 10  1  0
 24 19  1  0
 24  4  1  0
  1 25  1  0
  1 26  1  0
  1 27  1  0
  2 28  1  0
  3 29  1  0
  5 30  1  0
  9 31  1  0
 11 32  1  0
 12 33  1  0
 13 34  1  0
 14 35  1  0
 16 36  1  0
 17 37  1  0
 17 38  1  0
 18 39  1  0
 18 40  1  0
 20 41  1  0
 21 42  1  0
 22 43  1  0
 23 44  1  0
M  END
>  <Energy>  (562) 
36.008570844992313

>  <compound_id>  (562) 
1869

>  <target_id>  (562) 
1

>  <reference_id>  (562) 
26

>  <inspiration_ids>  (562) 
[26, 106]

>  <energy_score>  (562) 
-21.02164235443402

>  <distance_score>  (562) 
1.7998701108770132

>  <path>  (562) 
/opt/xchem-fragalysis-2/maxwin/BulkDock/SCRATCH/505732/C1869-P26/C1869-P26.minimised.mol

>  <scratch_subdir>  (562) 
/opt/xchem-fragalysis-2/maxwin/BulkDock/SCRATCH/505732/C1869-P26

>  <fragmenstein_runtime>  (562) 
2.379779577255249

>  <fragmenstein_outcome>  (562) 
too moved

>  <fragmenstein_mode>  (562) 
expansion

>  <fragmenstein_error>  (562) 


$$$$
C1869-P106
     RDKit          3D

 44 47  0  0  0  0  0  0  0  0999 V2000
   15.2460    2.3659   16.8153 C   0  0  0  0  0  0  0  0  0  0  0  0
   15.7207    0.9234   16.7651 C   0  0  0  0  0  0  0  0  0  0  0  0
   14.7853    0.0591   17.5256 N   0  0  0  0  0  0  0  0  0  0  0  0
   14.4676   -1.0977   16.6742 C   0  0  0  0  0  0  0  0  0  0  0  0
   15.2371   -0.9080   15.4068 C   0  0  0  0  0  0  0  0  0  0  0  0
   15.7789    0.3117   15.4160 C   0  0  0  0  0  0  0  0  0  0  0  0
   15.9787    1.1303   14.2064 C   0  0  0  0  0  0  0  0  0  0  0  0
   17.0151    1.5354   13.8532 O   0  0  0  0  0  0  0  0  0  0  0  0
   14.5500    1.3811   13.6382 N   0  0  0  0  0  0  0  0  0  0  0  0
   14.1187    2.2248   12.6185 C   0  0  0  0  0  0  0  0  0  0  0  0
   14.9809    3.1802   12.0926 C   0  0  0  0  0  0  0  0  0  0  0  0
   14.5276    4.0889   11.1303 C   0  0  0  0  0  0  0  0  0  0  0  0
   13.2015    4.0571   10.7026 C   0  0  0  0  0  0  0  0  0  0  0  0
   12.3268    3.1121   11.2329 C   0  0  0  0  0  0  0  0  0  0  0  0
   12.7870    2.1983   12.1794 C   0  0  0  0  0  0  0  0  0  0  0  0
   11.8679    1.2941   12.6358 O   0  0  0  0  0  0  0  0  0  0  0  0
   14.6395   -2.4515   17.3844 C   0  0  0  0  0  0  0  0  0  0  0  0
   13.6781   -3.4287   16.6932 C   0  0  0  0  0  0  0  0  0  0  0  0
   12.6164   -2.5051   16.1828 C   0  0  0  0  0  0  0  0  0  0  0  0
   11.3973   -2.8352   15.6416 C   0  0  0  0  0  0  0  0  0  0  0  0
   10.5391   -1.7968   15.2722 C   0  0  0  0  0  0  0  0  0  0  0  0
   10.9108   -0.4538   15.3987 C   0  0  0  0  0  0  0  0  0  0  0  0
   12.1665   -0.1295   15.8943 C   0  0  0  0  0  0  0  0  0  0  0  0
   13.0112   -1.1659   16.2786 C   0  0  0  0  0  0  0  0  0  0  0  0
   15.1815    2.7159   17.8520 H   0  0  0  0  0  0  0  0  0  0  0  0
   15.9433    3.0292   16.2917 H   0  0  0  0  0  0  0  0  0  0  0  0
   14.2573    2.4944   16.3619 H   0  0  0  0  0  0  0  0  0  0  0  0
   16.7161    0.8617   17.2231 H   0  0  0  0  0  0  0  0  0  0  0  0
   15.2564   -0.2584   18.3706 H   0  0  0  0  0  0  0  0  0  0  0  0
   15.0802   -1.5072   14.5185 H   0  0  0  0  0  0  0  0  0  0  0  0
   13.8833    0.8082   14.1352 H   0  0  0  0  0  0  0  0  0  0  0  0
   16.0147    3.2493   12.4202 H   0  0  0  0  0  0  0  0  0  0  0  0
   15.2123    4.8301   10.7250 H   0  0  0  0  0  0  0  0  0  0  0  0
   12.8493    4.7703    9.9618 H   0  0  0  0  0  0  0  0  0  0  0  0
   11.2911    3.0858   10.9061 H   0  0  0  0  0  0  0  0  0  0  0  0
   12.3368    0.4924   12.9215 H   0  0  0  0  0  0  0  0  0  0  0  0
   15.6726   -2.8168   17.3752 H   0  0  0  0  0  0  0  0  0  0  0  0
   14.3407   -2.3686   18.4398 H   0  0  0  0  0  0  0  0  0  0  0  0
   14.1906   -3.9395   15.8816 H   0  0  0  0  0  0  0  0  0  0  0  0
   13.2812   -4.1629   17.4004 H   0  0  0  0  0  0  0  0  0  0  0  0
   11.0892   -3.8687   15.5267 H   0  0  0  0  0  0  0  0  0  0  0  0
    9.5573   -2.0400   14.8724 H   0  0  0  0  0  0  0  0  0  0  0  0
   10.2246    0.3281   15.0811 H   0  0  0  0  0  0  0  0  0  0  0  0
   12.4697    0.9087   15.9859 H   0  0  0  0  0  0  0  0  0  0  0  0
  1  2  1  0
  2  3  1  0
  3  4  1  0
  4  5  1  0
  5  6  2  0
  6  7  1  0
  7  8  2  0
  7  9  1  0
  9 10  1  0
 10 11  2  0
 11 12  1  0
 12 13  2  0
 13 14  1  0
 14 15  2  0
 15 16  1  0
  4 17  1  0
 17 18  1  0
 18 19  1  0
 19 20  2  0
 20 21  1  0
 21 22  2  0
 22 23  1  0
 23 24  2  0
  6  2  1  0
 15 10  1  0
 24 19  1  0
 24  4  1  0
  1 25  1  0
  1 26  1  0
  1 27  1  0
  2 28  1  0
  3 29  1  0
  5 30  1  0
  9 31  1  0
 11 32  1  0
 12 33  1  0
 13 34  1  0
 14 35  1  0
 16 36  1  0
 17 37  1  0
 17 38  1  0
 18 39  1  0
 18 40  1  0
 20 41  1  0
 21 42  1  0
 22 43  1  0
 23 44  1  0
M  END
>  <Energy>  (563) 
35.107453276002389

>  <compound_id>  (563) 
1869

>  <target_id>  (563) 
1

>  <reference_id>  (563) 
106

>  <inspiration_ids>  (563) 
[26, 106]

>  <energy_score>  (563) 
-21.92275992342158

>  <distance_score>  (563) 
1.6701971085844705

>  <path>  (563) 
/opt/xchem-fragalysis-2/maxwin/BulkDock/SCRATCH/505732/C1869-P106/C1869-P106.minimised.mol

>  <scratch_subdir>  (563) 
/opt/xchem-fragalysis-2/maxwin/BulkDock/SCRATCH/505732/C1869-P106

>  <fragmenstein_runtime>  (563) 
3.390352249145508

>  <fragmenstein_outcome>  (563) 
too moved

>  <fragmenstein_mode>  (563) 
expansion

>  <fragmenstein_error>  (563) 


$$$$
C1871-P26
     RDKit          3D

 46 48  0  0  0  0  0  0  0  0999 V2000
   12.3777    4.0384   13.8742 C   0  0  0  0  0  0  0  0  0  0  0  0
   13.8341    4.2728   14.2469 C   0  0  0  0  0  0  0  0  0  0  0  0
   14.6138    2.9978   14.3713 C   0  0  0  0  0  0  0  0  0  0  0  0
   15.4077    2.5398   13.3150 C   0  0  0  0  0  0  0  0  0  0  0  0
   16.1195    1.3477   13.4429 C   0  0  0  0  0  0  0  0  0  0  0  0
   15.9900    0.5671   14.5948 C   0  0  0  0  0  0  0  0  0  0  0  0
   15.1163    0.9470   15.6101 C   0  0  0  0  0  0  0  0  0  0  0  0
   14.7804    0.1089   16.6896 N   0  0  0  0  0  0  0  0  0  0  0  0
   14.4071   -1.2982   16.3670 C   0  0  0  0  0  0  0  0  0  0  0  0
   14.4712   -2.0245   17.7257 C   0  0  0  0  0  0  0  0  0  0  0  0
   13.7769   -3.3738   17.7973 C   0  0  0  0  0  0  0  0  0  0  0  0
   13.2052   -3.8063   16.4713 C   0  0  0  0  0  0  0  0  0  0  0  0
   12.3054   -2.7456   15.8639 C   0  0  0  0  0  0  0  0  0  0  0  0
   12.9883   -1.3686   15.6805 C   0  0  0  0  0  0  0  0  0  0  0  0
   13.1302   -1.0862   14.1632 C   0  0  0  0  0  0  0  0  0  0  0  0
   11.8594   -0.9110   13.5460 O   0  0  0  0  0  0  0  0  0  0  0  0
   11.2091    0.2201   14.1222 C   0  0  0  0  0  0  0  0  0  0  0  0
   10.9367   -0.0764   15.5830 C   0  0  0  0  0  0  0  0  0  0  0  0
   12.1451   -0.3570   16.3112 O   0  0  0  0  0  0  0  0  0  0  0  0
   14.5314    2.2188   15.5275 C   0  0  0  0  0  0  0  0  0  0  0  0
   13.7987    2.6868   16.5887 O   0  0  0  0  0  0  0  0  0  0  0  0
   11.8614    4.9956   13.7498 H   0  0  0  0  0  0  0  0  0  0  0  0
   11.8520    3.4734   14.6507 H   0  0  0  0  0  0  0  0  0  0  0  0
   12.2928    3.4822   12.9344 H   0  0  0  0  0  0  0  0  0  0  0  0
   14.2975    4.9131   13.4857 H   0  0  0  0  0  0  0  0  0  0  0  0
   13.8938    4.8435   15.1816 H   0  0  0  0  0  0  0  0  0  0  0  0
   15.4974    3.1199   12.3999 H   0  0  0  0  0  0  0  0  0  0  0  0
   16.7687    1.0153   12.6366 H   0  0  0  0  0  0  0  0  0  0  0  0
   16.5417   -0.3660   14.6592 H   0  0  0  0  0  0  0  0  0  0  0  0
   13.9344    0.5035   17.1196 H   0  0  0  0  0  0  0  0  0  0  0  0
   15.1544   -1.7740   15.7197 H   0  0  0  0  0  0  0  0  0  0  0  0
   15.5291   -2.1574   17.9926 H   0  0  0  0  0  0  0  0  0  0  0  0
   14.0754   -1.3828   18.5216 H   0  0  0  0  0  0  0  0  0  0  0  0
   12.9846   -3.3436   18.5500 H   0  0  0  0  0  0  0  0  0  0  0  0
   14.4894   -4.1255   18.1554 H   0  0  0  0  0  0  0  0  0  0  0  0
   12.6433   -4.7369   16.5971 H   0  0  0  0  0  0  0  0  0  0  0  0
   14.0507   -4.0189   15.8173 H   0  0  0  0  0  0  0  0  0  0  0  0
   11.4283   -2.6494   16.5028 H   0  0  0  0  0  0  0  0  0  0  0  0
   11.9205   -3.1261   14.9101 H   0  0  0  0  0  0  0  0  0  0  0  0
   13.6401   -1.9154   13.6613 H   0  0  0  0  0  0  0  0  0  0  0  0
   13.6887   -0.1881   13.9301 H   0  0  0  0  0  0  0  0  0  0  0  0
   10.2768    0.4059   13.5842 H   0  0  0  0  0  0  0  0  0  0  0  0
   11.8447    1.1028   14.0030 H   0  0  0  0  0  0  0  0  0  0  0  0
   10.4546    0.7863   16.0520 H   0  0  0  0  0  0  0  0  0  0  0  0
   10.2580   -0.9297   15.6804 H   0  0  0  0  0  0  0  0  0  0  0  0
   14.2736    2.3783   17.3823 H   0  0  0  0  0  0  0  0  0  0  0  0
  1  2  1  0
  2  3  1  0
  3  4  2  0
  4  5  1  0
  5  6  2  0
  6  7  1  0
  7  8  1  0
  8  9  1  0
  9 10  1  0
 10 11  1  0
 11 12  1  0
 12 13  1  0
 13 14  1  0
 14 15  1  0
 15 16  1  0
 16 17  1  0
 17 18  1  0
 18 19  1  0
  7 20  2  0
 20 21  1  0
 20  3  1  0
 14  9  1  0
 19 14  1  0
  1 22  1  0
  1 23  1  0
  1 24  1  0
  2 25  1  0
  2 26  1  0
  4 27  1  0
  5 28  1  0
  6 29  1  0
  8 30  1  0
  9 31  1  0
 10 32  1  0
 10 33  1  0
 11 34  1  0
 11 35  1  0
 12 36  1  0
 12 37  1  0
 13 38  1  0
 13 39  1  0
 15 40  1  0
 15 41  1  0
 17 42  1  0
 17 43  1  0
 18 44  1  0
 18 45  1  0
 21 46  1  0
M  END
>  <Energy>  (564) 
119.94410143515316

>  <compound_id>  (564) 
1871

>  <target_id>  (564) 
1

>  <reference_id>  (564) 
26

>  <inspiration_ids>  (564) 
[26, 114]

>  <energy_score>  (564) 
-43.71896307082332

>  <distance_score>  (564) 
1.2754375610308977

>  <path>  (564) 
/opt/xchem-fragalysis-2/maxwin/BulkDock/SCRATCH/505732/C1871-P26/C1871-P26.minimised.mol

>  <scratch_subdir>  (564) 
/opt/xchem-fragalysis-2/maxwin/BulkDock/SCRATCH/505732/C1871-P26

>  <fragmenstein_runtime>  (564) 
1.9367382526397705

>  <fragmenstein_outcome>  (564) 
too moved

>  <fragmenstein_mode>  (564) 
expansion

>  <fragmenstein_error>  (564) 


$$$$
C1871-P114
     RDKit          3D

 46 48  0  0  0  0  0  0  0  0999 V2000
   12.4004    4.0698   13.9453 C   0  0  0  0  0  0  0  0  0  0  0  0
   13.8610    4.2812   14.3143 C   0  0  0  0  0  0  0  0  0  0  0  0
   14.6285    2.9965   14.4144 C   0  0  0  0  0  0  0  0  0  0  0  0
   15.4193    2.5530   13.3495 C   0  0  0  0  0  0  0  0  0  0  0  0
   16.1233    1.3543   13.4547 C   0  0  0  0  0  0  0  0  0  0  0  0
   15.9884    0.5531   14.5916 C   0  0  0  0  0  0  0  0  0  0  0  0
   15.1162    0.9188   15.6141 C   0  0  0  0  0  0  0  0  0  0  0  0
   14.7710    0.0580   16.6733 N   0  0  0  0  0  0  0  0  0  0  0  0
   14.3877   -1.3379   16.3126 C   0  0  0  0  0  0  0  0  0  0  0  0
   14.4687   -2.1110   17.6439 C   0  0  0  0  0  0  0  0  0  0  0  0
   13.7518   -3.4495   17.6832 C   0  0  0  0  0  0  0  0  0  0  0  0
   13.1833   -3.8457   16.3442 C   0  0  0  0  0  0  0  0  0  0  0  0
   12.2829   -2.7690   15.7664 C   0  0  0  0  0  0  0  0  0  0  0  0
   12.9612   -1.3821   15.6378 C   0  0  0  0  0  0  0  0  0  0  0  0
   13.0922   -1.0333   14.1326 C   0  0  0  0  0  0  0  0  0  0  0  0
   11.8214   -0.8232   13.5292 O   0  0  0  0  0  0  0  0  0  0  0  0
   11.1667    0.2725   14.1643 C   0  0  0  0  0  0  0  0  0  0  0  0
   10.9073   -0.0927   15.6124 C   0  0  0  0  0  0  0  0  0  0  0  0
   12.1211   -0.4011   16.3195 O   0  0  0  0  0  0  0  0  0  0  0  0
   14.5398    2.1959   15.5558 C   0  0  0  0  0  0  0  0  0  0  0  0
   13.8086    2.6473   16.6249 O   0  0  0  0  0  0  0  0  0  0  0  0
   12.3041    3.5246   13.0003 H   0  0  0  0  0  0  0  0  0  0  0  0
   11.8962    5.0350   13.8332 H   0  0  0  0  0  0  0  0  0  0  0  0
   11.8706    3.5044   14.7187 H   0  0  0  0  0  0  0  0  0  0  0  0
   14.3276    4.9291   13.5614 H   0  0  0  0  0  0  0  0  0  0  0  0
   13.9317    4.8357   15.2580 H   0  0  0  0  0  0  0  0  0  0  0  0
   15.5135    3.1500   12.4457 H   0  0  0  0  0  0  0  0  0  0  0  0
   16.7709    1.0332   12.6425 H   0  0  0  0  0  0  0  0  0  0  0  0
   16.5348   -0.3842   14.6384 H   0  0  0  0  0  0  0  0  0  0  0  0
   13.9295    0.4480   17.1154 H   0  0  0  0  0  0  0  0  0  0  0  0
   15.1244   -1.7957   15.6404 H   0  0  0  0  0  0  0  0  0  0  0  0
   15.5298   -2.2713   17.8814 H   0  0  0  0  0  0  0  0  0  0  0  0
   14.1007   -1.4920   18.4704 H   0  0  0  0  0  0  0  0  0  0  0  0
   12.9524   -3.4095   18.4275 H   0  0  0  0  0  0  0  0  0  0  0  0
   14.4418   -4.2266   18.0338 H   0  0  0  0  0  0  0  0  0  0  0  0
   12.6230   -4.7795   16.4497 H   0  0  0  0  0  0  0  0  0  0  0  0
   14.0232   -4.0397   15.6770 H   0  0  0  0  0  0  0  0  0  0  0  0
   11.3985   -2.7016   16.4008 H   0  0  0  0  0  0  0  0  0  0  0  0
   11.9128   -3.1192   14.7950 H   0  0  0  0  0  0  0  0  0  0  0  0
   13.5953   -1.8431   13.5923 H   0  0  0  0  0  0  0  0  0  0  0  0
   13.6525   -0.1284   13.9347 H   0  0  0  0  0  0  0  0  0  0  0  0
   10.2272    0.4726   13.6422 H   0  0  0  0  0  0  0  0  0  0  0  0
   11.7944    1.1647   14.0819 H   0  0  0  0  0  0  0  0  0  0  0  0
   10.4241    0.7433   16.1266 H   0  0  0  0  0  0  0  0  0  0  0  0
   10.2328   -0.9528   15.6730 H   0  0  0  0  0  0  0  0  0  0  0  0
   14.2799    2.3192   17.4126 H   0  0  0  0  0  0  0  0  0  0  0  0
  1  2  1  0
  2  3  1  0
  3  4  2  0
  4  5  1  0
  5  6  2  0
  6  7  1  0
  7  8  1  0
  8  9  1  0
  9 10  1  0
 10 11  1  0
 11 12  1  0
 12 13  1  0
 13 14  1  0
 14 15  1  0
 15 16  1  0
 16 17  1  0
 17 18  1  0
 18 19  1  0
  7 20  2  0
 20 21  1  0
 20  3  1  0
 14  9  1  0
 19 14  1  0
  1 22  1  0
  1 23  1  0
  1 24  1  0
  2 25  1  0
  2 26  1  0
  4 27  1  0
  5 28  1  0
  6 29  1  0
  8 30  1  0
  9 31  1  0
 10 32  1  0
 10 33  1  0
 11 34  1  0
 11 35  1  0
 12 36  1  0
 12 37  1  0
 13 38  1  0
 13 39  1  0
 15 40  1  0
 15 41  1  0
 17 42  1  0
 17 43  1  0
 18 44  1  0
 18 45  1  0
 21 46  1  0
M  END
>  <Energy>  (565) 
119.88691196657096

>  <compound_id>  (565) 
1871

>  <target_id>  (565) 
1

>  <reference_id>  (565) 
114

>  <inspiration_ids>  (565) 
[26, 114]

>  <energy_score>  (565) 
-43.776152539402545

>  <distance_score>  (565) 
1.2535101946343328

>  <path>  (565) 
/opt/xchem-fragalysis-2/maxwin/BulkDock/SCRATCH/505732/C1871-P114/C1871-P114.minimised.mol

>  <scratch_subdir>  (565) 
/opt/xchem-fragalysis-2/maxwin/BulkDock/SCRATCH/505732/C1871-P114

>  <fragmenstein_runtime>  (565) 
2.0247597694396973

>  <fragmenstein_outcome>  (565) 
too moved

>  <fragmenstein_mode>  (565) 
expansion

>  <fragmenstein_error>  (565) 


$$$$
C1872-P26
     RDKit          3D

 46 47  0  0  0  0  0  0  0  0999 V2000
   14.6531    2.3002   19.1774 C   0  0  0  0  0  0  0  0  0  0  0  0
   15.0090    0.8220   19.2652 C   0  0  0  0  0  0  0  0  0  0  0  0
   16.2471    0.4668   18.4304 C   0  0  0  0  0  0  0  0  0  0  0  0
   16.6998   -0.9750   18.7195 C   0  0  0  0  0  0  0  0  0  0  0  0
   17.9388   -1.3836   17.9347 C   0  0  0  0  0  0  0  0  0  0  0  0
   16.0307    0.7544   16.9308 C   0  0  0  0  0  0  0  0  0  0  0  0
   16.5909    1.5699   16.3623 O   0  0  0  0  0  0  0  0  0  0  0  0
   14.8969   -0.3784   16.4757 N   0  0  0  0  0  0  0  0  0  0  0  0
   14.1470   -0.6799   15.3357 C   0  0  0  0  0  0  0  0  0  0  0  0
   12.6948    0.1316   15.5646 C   0  0  0  0  0  0  0  0  0  0  0  0
   11.4090   -0.4070   15.3875 C   0  0  0  0  0  0  0  0  0  0  0  0
   11.2280   -1.7939   15.3324 C   0  0  0  0  0  0  0  0  0  0  0  0
   12.2610   -2.6875   15.6236 C   0  0  0  0  0  0  0  0  0  0  0  0
   13.5681   -2.2030   15.7541 C   0  0  0  0  0  0  0  0  0  0  0  0
   14.4664   -3.0714   16.3678 O   0  0  0  0  0  0  0  0  0  0  0  0
   14.4592   -0.5932   14.6288 C   0  0  0  0  0  0  0  0  0  0  0  0
   15.2896   -1.6987   13.7822 C   0  0  0  0  0  0  0  0  0  0  0  0
   15.5548   -1.6284   12.4091 C   0  0  0  0  0  0  0  0  0  0  0  0
   15.2852   -0.4595   11.6949 C   0  0  0  0  0  0  0  0  0  0  0  0
   14.8546    0.7163   12.3208 C   0  0  0  0  0  0  0  0  0  0  0  0
   14.5875    0.7393   13.6991 C   0  0  0  0  0  0  0  0  0  0  0  0
   14.3288    1.9505   14.3209 O   0  0  0  0  0  0  0  0  0  0  0  0
   15.3093    2.9464   14.0876 C   0  0  0  0  0  0  0  0  0  0  0  0
   15.1623    3.8764   15.0651 F   0  0  0  0  0  0  0  0  0  0  0  0
   15.0147    3.5784   12.9207 F   0  0  0  0  0  0  0  0  0  0  0  0
   14.3466    2.5781   18.1642 H   0  0  0  0  0  0  0  0  0  0  0  0
   13.8212    2.5284   19.8510 H   0  0  0  0  0  0  0  0  0  0  0  0
   15.5020    2.9276   19.4670 H   0  0  0  0  0  0  0  0  0  0  0  0
   15.1971    0.5773   20.3178 H   0  0  0  0  0  0  0  0  0  0  0  0
   14.1455    0.2254   18.9526 H   0  0  0  0  0  0  0  0  0  0  0  0
   17.0663    1.1288   18.7468 H   0  0  0  0  0  0  0  0  0  0  0  0
   16.9294   -1.0643   19.7890 H   0  0  0  0  0  0  0  0  0  0  0  0
   15.8932   -1.6888   18.5238 H   0  0  0  0  0  0  0  0  0  0  0  0
   17.7421   -1.4120   16.8587 H   0  0  0  0  0  0  0  0  0  0  0  0
   18.2627   -2.3839   18.2394 H   0  0  0  0  0  0  0  0  0  0  0  0
   18.7655   -0.6899   18.1176 H   0  0  0  0  0  0  0  0  0  0  0  0
   12.7734    1.1908   15.8312 H   0  0  0  0  0  0  0  0  0  0  0  0
   10.5477    0.2538   15.3278 H   0  0  0  0  0  0  0  0  0  0  0  0
   10.2263   -2.1823   15.1579 H   0  0  0  0  0  0  0  0  0  0  0  0
   12.0446   -3.7364   15.8013 H   0  0  0  0  0  0  0  0  0  0  0  0
   15.2298   -2.5172   16.6071 H   0  0  0  0  0  0  0  0  0  0  0  0
   15.6714   -2.5780   14.3071 H   0  0  0  0  0  0  0  0  0  0  0  0
   16.0099   -2.4800   11.9069 H   0  0  0  0  0  0  0  0  0  0  0  0
   15.4928   -0.4394   10.6258 H   0  0  0  0  0  0  0  0  0  0  0  0
   14.7545    1.6164   11.7193 H   0  0  0  0  0  0  0  0  0  0  0  0
   16.3414    2.5808   14.0707 H   0  0  0  0  0  0  0  0  0  0  0  0
  1  2  1  0
  2  3  1  0
  3  4  1  0
  4  5  1  0
  3  6  1  0
  6  7  2  0
  6  8  1  0
  8  9  1  0
  9 10  2  0
 10 11  1  0
 11 12  2  0
 12 13  1  0
 13 14  2  0
 14 15  1  0
  8 16  1  0
 16 17  2  0
 17 18  1  0
 18 19  2  0
 19 20  1  0
 20 21  2  0
 21 22  1  0
 22 23  1  0
 23 24  1  0
 23 25  1  0
 14  9  1  0
 21 16  1  0
  1 26  1  0
  1 27  1  0
  1 28  1  0
  2 29  1  0
  2 30  1  0
  3 31  1  0
  4 32  1  0
  4 33  1  0
  5 34  1  0
  5 35  1  0
  5 36  1  0
 10 37  1  0
 11 38  1  0
 12 39  1  0
 13 40  1  0
 15 41  1  0
 17 42  1  0
 18 43  1  0
 19 44  1  0
 20 45  1  0
 23 46  1  0
M  END
>  <Energy>  (566) 
779.72554181895748

>  <compound_id>  (566) 
1872

>  <target_id>  (566) 
1

>  <reference_id>  (566) 
26

>  <inspiration_ids>  (566) 
[26, 117]

>  <energy_score>  (566) 
633.3457314036135

>  <distance_score>  (566) 
1.9085089269206637

>  <path>  (566) 
/opt/xchem-fragalysis-2/maxwin/BulkDock/SCRATCH/505732/C1872-P26/C1872-P26.minimised.mol

>  <scratch_subdir>  (566) 
/opt/xchem-fragalysis-2/maxwin/BulkDock/SCRATCH/505732/C1872-P26

>  <fragmenstein_runtime>  (566) 
25.04353952407837

>  <fragmenstein_outcome>  (566) 
too moved

>  <fragmenstein_mode>  (566) 
expansion

>  <fragmenstein_error>  (566) 


$$$$
C1872-P117
     RDKit          3D

 46 47  0  0  0  0  0  0  0  0999 V2000
   14.6586    2.2614   19.1769 C   0  0  0  0  0  0  0  0  0  0  0  0
   14.9676    0.7728   19.2676 C   0  0  0  0  0  0  0  0  0  0  0  0
   16.2075    0.3801   18.4523 C   0  0  0  0  0  0  0  0  0  0  0  0
   16.6191   -1.0711   18.7555 C   0  0  0  0  0  0  0  0  0  0  0  0
   17.8599   -1.5139   17.9923 C   0  0  0  0  0  0  0  0  0  0  0  0
   16.0147    0.6667   16.9493 C   0  0  0  0  0  0  0  0  0  0  0  0
   16.5832    1.4822   16.3893 O   0  0  0  0  0  0  0  0  0  0  0  0
   14.8795   -0.4589   16.4795 N   0  0  0  0  0  0  0  0  0  0  0  0
   14.1378   -0.7520   15.3320 C   0  0  0  0  0  0  0  0  0  0  0  0
   12.6895    0.0669   15.5580 C   0  0  0  0  0  0  0  0  0  0  0  0
   11.4017   -0.4619   15.3684 C   0  0  0  0  0  0  0  0  0  0  0  0
   11.2135   -1.8471   15.2971 C   0  0  0  0  0  0  0  0  0  0  0  0
   12.2387   -2.7511   15.5845 C   0  0  0  0  0  0  0  0  0  0  0  0
   13.5472   -2.2762   15.7316 C   0  0  0  0  0  0  0  0  0  0  0  0
   14.4339   -3.1563   16.3443 O   0  0  0  0  0  0  0  0  0  0  0  0
   14.4564   -0.6632   14.6282 C   0  0  0  0  0  0  0  0  0  0  0  0
   15.2941   -1.7661   13.7852 C   0  0  0  0  0  0  0  0  0  0  0  0
   15.5656   -1.6945   12.4137 C   0  0  0  0  0  0  0  0  0  0  0  0
   15.2986   -0.5244   11.7003 C   0  0  0  0  0  0  0  0  0  0  0  0
   14.8670    0.6510   12.3266 C   0  0  0  0  0  0  0  0  0  0  0  0
   14.5930    0.6717   13.7036 C   0  0  0  0  0  0  0  0  0  0  0  0
   14.3338    1.8820   14.3266 O   0  0  0  0  0  0  0  0  0  0  0  0
   15.3208    2.8743   14.1050 C   0  0  0  0  0  0  0  0  0  0  0  0
   15.1683    3.8021   15.0838 F   0  0  0  0  0  0  0  0  0  0  0  0
   15.0396    3.5105   12.9373 F   0  0  0  0  0  0  0  0  0  0  0  0
   14.3822    2.5512   18.1584 H   0  0  0  0  0  0  0  0  0  0  0  0
   13.8196    2.5129   19.8334 H   0  0  0  0  0  0  0  0  0  0  0  0
   15.5198    2.8619   19.4865 H   0  0  0  0  0  0  0  0  0  0  0  0
   15.1294    0.5204   20.3227 H   0  0  0  0  0  0  0  0  0  0  0  0
   14.0912    0.2052   18.9380 H   0  0  0  0  0  0  0  0  0  0  0  0
   17.0399    1.0222   18.7753 H   0  0  0  0  0  0  0  0  0  0  0  0
   16.8299   -1.1605   19.8289 H   0  0  0  0  0  0  0  0  0  0  0  0
   15.7981   -1.7658   18.5507 H   0  0  0  0  0  0  0  0  0  0  0  0
   17.6805   -1.5405   16.9132 H   0  0  0  0  0  0  0  0  0  0  0  0
   18.1530   -2.5212   18.3051 H   0  0  0  0  0  0  0  0  0  0  0  0
   18.7011   -0.8410   18.1869 H   0  0  0  0  0  0  0  0  0  0  0  0
   12.7736    1.1238   15.8318 H   0  0  0  0  0  0  0  0  0  0  0  0
   10.5447    0.2042   15.3060 H   0  0  0  0  0  0  0  0  0  0  0  0
   10.2111   -2.2275   15.1084 H   0  0  0  0  0  0  0  0  0  0  0  0
   12.0140   -3.8006   15.7475 H   0  0  0  0  0  0  0  0  0  0  0  0
   15.1961   -2.6099   16.6045 H   0  0  0  0  0  0  0  0  0  0  0  0
   15.6749   -2.6443   14.3125 H   0  0  0  0  0  0  0  0  0  0  0  0
   16.0224   -2.5459   11.9125 H   0  0  0  0  0  0  0  0  0  0  0  0
   15.5090   -0.5030   10.6317 H   0  0  0  0  0  0  0  0  0  0  0  0
   14.7709    1.5525   11.7265 H   0  0  0  0  0  0  0  0  0  0  0  0
   16.3514    2.5042   14.0970 H   0  0  0  0  0  0  0  0  0  0  0  0
  1  2  1  0
  2  3  1  0
  3  4  1  0
  4  5  1  0
  3  6  1  0
  6  7  2  0
  6  8  1  0
  8  9  1  0
  9 10  2  0
 10 11  1  0
 11 12  2  0
 12 13  1  0
 13 14  2  0
 14 15  1  0
  8 16  1  0
 16 17  2  0
 17 18  1  0
 18 19  2  0
 19 20  1  0
 20 21  2  0
 21 22  1  0
 22 23  1  0
 23 24  1  0
 23 25  1  0
 14  9  1  0
 21 16  1  0
  1 26  1  0
  1 27  1  0
  1 28  1  0
  2 29  1  0
  2 30  1  0
  3 31  1  0
  4 32  1  0
  4 33  1  0
  5 34  1  0
  5 35  1  0
  5 36  1  0
 10 37  1  0
 11 38  1  0
 12 39  1  0
 13 40  1  0
 15 41  1  0
 17 42  1  0
 18 43  1  0
 19 44  1  0
 20 45  1  0
 23 46  1  0
M  END
>  <Energy>  (567) 
779.65303061527368

>  <compound_id>  (567) 
1872

>  <target_id>  (567) 
1

>  <reference_id>  (567) 
117

>  <inspiration_ids>  (567) 
[26, 117]

>  <energy_score>  (567) 
633.2732201999282

>  <distance_score>  (567) 
1.8912691130857537

>  <path>  (567) 
/opt/xchem-fragalysis-2/maxwin/BulkDock/SCRATCH/505732/C1872-P117/C1872-P117.minimised.mol

>  <scratch_subdir>  (567) 
/opt/xchem-fragalysis-2/maxwin/BulkDock/SCRATCH/505732/C1872-P117

>  <fragmenstein_runtime>  (567) 
25.902007818222046

>  <fragmenstein_outcome>  (567) 
too moved

>  <fragmenstein_mode>  (567) 
expansion

>  <fragmenstein_error>  (567) 


$$$$
C1873-P26
     RDKit          3D

 31 32  0  0  0  0  0  0  0  0999 V2000
   15.8995    2.0520   17.2559 C   0  0  0  0  0  0  0  0  0  0  0  0
   14.7095    1.1568   16.9606 C   0  0  0  0  0  0  0  0  0  0  0  0
   14.1818    1.3777   15.6366 N   0  0  0  0  0  0  0  0  0  0  0  0
   12.9811    1.9641   15.3529 C   0  0  0  0  0  0  0  0  0  0  0  0
   12.8442    2.1878   14.0673 N   0  0  0  0  0  0  0  0  0  0  0  0
   14.0130    1.7203   13.5113 C   0  0  0  0  0  0  0  0  0  0  0  0
   14.8166    1.0925   14.4520 C   0  0  0  0  0  0  0  0  0  0  0  0
   16.0035    0.4536   14.3631 N   0  0  0  0  0  0  0  0  0  0  0  0
   16.2837   -0.6837   14.7306 C   0  0  0  0  0  0  0  0  0  0  0  0
   15.3295   -1.9062   15.1792 N   0  0  0  0  0  0  0  0  0  0  0  0
   13.9436   -2.0187   15.1782 C   0  0  0  0  0  0  0  0  0  0  0  0
   13.1460   -1.3065   14.3038 C   0  0  0  0  0  0  0  0  0  0  0  0
   11.7623   -1.3453   14.3573 C   0  0  0  0  0  0  0  0  0  0  0  0
   11.1323   -2.2594   15.1783 C   0  0  0  0  0  0  0  0  0  0  0  0
   11.8969   -3.0966   15.9756 C   0  0  0  0  0  0  0  0  0  0  0  0
   13.2827   -2.9465   16.0046 C   0  0  0  0  0  0  0  0  0  0  0  0
   14.0048   -3.8161   16.7821 O   0  0  0  0  0  0  0  0  0  0  0  0
   16.7486    1.8383   16.5998 H   0  0  0  0  0  0  0  0  0  0  0  0
   15.6386    3.1085   17.1314 H   0  0  0  0  0  0  0  0  0  0  0  0
   16.2325    1.9049   18.2883 H   0  0  0  0  0  0  0  0  0  0  0  0
   13.9092    1.3587   17.6819 H   0  0  0  0  0  0  0  0  0  0  0  0
   14.9756    0.1025   17.0655 H   0  0  0  0  0  0  0  0  0  0  0  0
   12.2654    2.2360   16.1177 H   0  0  0  0  0  0  0  0  0  0  0  0
   14.2016    1.7983   12.4496 H   0  0  0  0  0  0  0  0  0  0  0  0
   17.2996   -1.1158   14.7485 H   0  0  0  0  0  0  0  0  0  0  0  0
   15.8993   -2.6792   15.5011 H   0  0  0  0  0  0  0  0  0  0  0  0
   13.5922   -0.7494   13.4907 H   0  0  0  0  0  0  0  0  0  0  0  0
   11.1891   -0.7088   13.6882 H   0  0  0  0  0  0  0  0  0  0  0  0
   10.0536   -2.3538   15.1191 H   0  0  0  0  0  0  0  0  0  0  0  0
   11.4200   -3.8812   16.5503 H   0  0  0  0  0  0  0  0  0  0  0  0
   13.4634   -4.6192   16.8910 H   0  0  0  0  0  0  0  0  0  0  0  0
  1  2  1  0
  2  3  1  0
  3  4  1  0
  4  5  2  0
  5  6  1  0
  6  7  2  0
  7  8  1  0
  8  9  2  3
  9 10  1  0
 10 11  1  0
 11 12  2  0
 12 13  1  0
 13 14  2  0
 14 15  1  0
 15 16  2  0
 16 17  1  0
  7  3  1  0
 16 11  1  0
  1 18  1  0
  1 19  1  0
  1 20  1  0
  2 21  1  0
  2 22  1  0
  4 23  1  0
  6 24  1  0
  9 25  1  0
 10 26  1  0
 12 27  1  0
 13 28  1  0
 14 29  1  0
 15 30  1  0
 17 31  1  0
M  END
>  <Energy>  (568) 
50.664315717056525

>  <compound_id>  (568) 
1873

>  <target_id>  (568) 
1

>  <reference_id>  (568) 
26

>  <inspiration_ids>  (568) 
[26, 118]

>  <energy_score>  (568) 
6.008893128124811

>  <distance_score>  (568) 
2.1421376821620277

>  <path>  (568) 
/opt/xchem-fragalysis-2/maxwin/BulkDock/SCRATCH/505732/C1873-P26/C1873-P26.minimised.mol

>  <scratch_subdir>  (568) 
/opt/xchem-fragalysis-2/maxwin/BulkDock/SCRATCH/505732/C1873-P26

>  <fragmenstein_runtime>  (568) 
21.023354530334473

>  <fragmenstein_outcome>  (568) 
too moved

>  <fragmenstein_mode>  (568) 
expansion

>  <fragmenstein_error>  (568) 


$$$$
C1873-P118
     RDKit          3D

 31 32  0  0  0  0  0  0  0  0999 V2000
   16.3777    2.9045   15.9961 C   0  0  0  0  0  0  0  0  0  0  0  0
   14.9602    2.3752   16.0446 C   0  0  0  0  0  0  0  0  0  0  0  0
   14.6693    1.4386   14.9869 N   0  0  0  0  0  0  0  0  0  0  0  0
   13.7510    1.6082   13.9928 C   0  0  0  0  0  0  0  0  0  0  0  0
   13.6419    0.5323   13.2521 N   0  0  0  0  0  0  0  0  0  0  0  0
   14.5452   -0.3618   13.7912 C   0  0  0  0  0  0  0  0  0  0  0  0
   15.1614    0.1575   14.9177 C   0  0  0  0  0  0  0  0  0  0  0  0
   16.0897   -0.2764   15.7979 N   0  0  0  0  0  0  0  0  0  0  0  0
   15.9466   -1.1768   16.6103 C   0  0  0  0  0  0  0  0  0  0  0  0
   14.6507   -2.0269   17.0016 N   0  0  0  0  0  0  0  0  0  0  0  0
   13.3330   -1.9040   16.5884 C   0  0  0  0  0  0  0  0  0  0  0  0
   12.7164   -0.6887   16.3338 C   0  0  0  0  0  0  0  0  0  0  0  0
   11.5114   -0.6109   15.6387 C   0  0  0  0  0  0  0  0  0  0  0  0
   10.8785   -1.7756   15.2450 C   0  0  0  0  0  0  0  0  0  0  0  0
   11.4057   -3.0047   15.6190 C   0  0  0  0  0  0  0  0  0  0  0  0
   12.5868   -3.0567   16.3504 C   0  0  0  0  0  0  0  0  0  0  0  0
   13.0399   -4.2456   16.8592 O   0  0  0  0  0  0  0  0  0  0  0  0
   17.1208    2.1176   16.1541 H   0  0  0  0  0  0  0  0  0  0  0  0
   16.5893    3.3722   15.0285 H   0  0  0  0  0  0  0  0  0  0  0  0
   16.5244    3.6588   16.7758 H   0  0  0  0  0  0  0  0  0  0  0  0
   14.2516    3.2072   15.9629 H   0  0  0  0  0  0  0  0  0  0  0  0
   14.7707    1.8807   17.0033 H   0  0  0  0  0  0  0  0  0  0  0  0
   13.1918    2.5239   13.8556 H   0  0  0  0  0  0  0  0  0  0  0  0
   14.6828   -1.3473   13.3670 H   0  0  0  0  0  0  0  0  0  0  0  0
   16.7339   -1.5492   17.2890 H   0  0  0  0  0  0  0  0  0  0  0  0
   14.8709   -2.6406   17.7763 H   0  0  0  0  0  0  0  0  0  0  0  0
   13.1879    0.2267   16.6603 H   0  0  0  0  0  0  0  0  0  0  0  0
   11.0907    0.3541   15.3711 H   0  0  0  0  0  0  0  0  0  0  0  0
    9.9540   -1.7257   14.6794 H   0  0  0  0  0  0  0  0  0  0  0  0
   10.8744   -3.9030   15.3346 H   0  0  0  0  0  0  0  0  0  0  0  0
   12.3611   -4.9146   16.6721 H   0  0  0  0  0  0  0  0  0  0  0  0
  1  2  1  0
  2  3  1  0
  3  4  1  0
  4  5  2  0
  5  6  1  0
  6  7  2  0
  7  8  1  0
  8  9  2  3
  9 10  1  0
 10 11  1  0
 11 12  2  0
 12 13  1  0
 13 14  2  0
 14 15  1  0
 15 16  2  0
 16 17  1  0
  7  3  1  0
 16 11  1  0
  1 18  1  0
  1 19  1  0
  1 20  1  0
  2 21  1  0
  2 22  1  0
  4 23  1  0
  6 24  1  0
  9 25  1  0
 10 26  1  0
 12 27  1  0
 13 28  1  0
 14 29  1  0
 15 30  1  0
 17 31  1  0
M  END
>  <Energy>  (569) 
51.544239661520862

>  <compound_id>  (569) 
1873

>  <target_id>  (569) 
1

>  <reference_id>  (569) 
118

>  <inspiration_ids>  (569) 
[26, 118]

>  <energy_score>  (569) 
6.888817072590086

>  <distance_score>  (569) 
2.439306580532057

>  <path>  (569) 
/opt/xchem-fragalysis-2/maxwin/BulkDock/SCRATCH/505732/C1873-P118/C1873-P118.minimised.mol

>  <scratch_subdir>  (569) 
/opt/xchem-fragalysis-2/maxwin/BulkDock/SCRATCH/505732/C1873-P118

>  <fragmenstein_runtime>  (569) 
21.08378553390503

>  <fragmenstein_outcome>  (569) 
too moved

>  <fragmenstein_mode>  (569) 
expansion

>  <fragmenstein_error>  (569) 


$$$$
C1874-P26
     RDKit          3D

 39 41  0  0  0  0  0  0  0  0999 V2000
   17.2252   -0.0567   17.5470 C   0  0  0  0  0  0  0  0  0  0  0  0
   16.2352    0.9059   16.9056 C   0  0  0  0  0  0  0  0  0  0  0  0
   15.2292    0.1865   16.0694 C   0  0  0  0  0  0  0  0  0  0  0  0
   14.9913    0.3269   14.7570 C   0  0  0  0  0  0  0  0  0  0  0  0
   15.3897    1.3920   13.8060 C   0  0  0  0  0  0  0  0  0  0  0  0
   14.0135    1.8998   13.4091 C   0  0  0  0  0  0  0  0  0  0  0  0
   13.8524    3.2404   13.1061 N   0  0  0  0  0  0  0  0  0  0  0  0
   13.5789    4.1796   14.2012 C   0  0  0  0  0  0  0  0  0  0  0  0
   14.2053    3.7865   15.4227 O   0  0  0  0  0  0  0  0  0  0  0  0
   13.5072    3.6403   11.7817 C   0  0  0  0  0  0  0  0  0  0  0  0
   13.8940    2.8152   10.6981 C   0  0  0  0  0  0  0  0  0  0  0  0
   13.6077    3.1327    9.3653 C   0  0  0  0  0  0  0  0  0  0  0  0
   12.9214    4.2993    9.0637 C   0  0  0  0  0  0  0  0  0  0  0  0
   12.5199    5.1416   10.0951 C   0  0  0  0  0  0  0  0  0  0  0  0
   12.8050    4.8164   11.4319 C   0  0  0  0  0  0  0  0  0  0  0  0
   12.3392    5.6798   12.3918 O   0  0  0  0  0  0  0  0  0  0  0  0
   13.0465    1.0035   13.7178 C   0  0  0  0  0  0  0  0  0  0  0  0
   13.6423   -0.2101   14.3654 C   0  0  0  0  0  0  0  0  0  0  0  0
   13.1225   -0.6396   15.7035 C   0  0  0  0  0  0  0  0  0  0  0  0
   14.0761   -0.4819   16.6407 C   0  0  0  0  0  0  0  0  0  0  0  0
   16.7205   -0.7659   18.2116 H   0  0  0  0  0  0  0  0  0  0  0  0
   17.7698   -0.6280   16.7876 H   0  0  0  0  0  0  0  0  0  0  0  0
   17.9577    0.4978   18.1424 H   0  0  0  0  0  0  0  0  0  0  0  0
   16.7975    1.6308   16.3074 H   0  0  0  0  0  0  0  0  0  0  0  0
   15.7250    1.4795   17.6889 H   0  0  0  0  0  0  0  0  0  0  0  0
   15.9229    0.9863   12.9408 H   0  0  0  0  0  0  0  0  0  0  0  0
   15.9968    2.1740   14.2684 H   0  0  0  0  0  0  0  0  0  0  0  0
   13.9964    5.1665   13.9805 H   0  0  0  0  0  0  0  0  0  0  0  0
   12.5040    4.2575   14.3993 H   0  0  0  0  0  0  0  0  0  0  0  0
   13.8327    2.9122   15.6225 H   0  0  0  0  0  0  0  0  0  0  0  0
   14.4494    1.8982   10.8826 H   0  0  0  0  0  0  0  0  0  0  0  0
   13.9303    2.4645    8.5710 H   0  0  0  0  0  0  0  0  0  0  0  0
   12.6998    4.5512    8.0303 H   0  0  0  0  0  0  0  0  0  0  0  0
   11.9764    6.0475    9.8432 H   0  0  0  0  0  0  0  0  0  0  0  0
   12.0131    6.4869   11.9618 H   0  0  0  0  0  0  0  0  0  0  0  0
   11.9860    1.1698   13.6025 H   0  0  0  0  0  0  0  0  0  0  0  0
   13.7078   -1.0519   13.6685 H   0  0  0  0  0  0  0  0  0  0  0  0
   12.1530   -1.0859   15.8618 H   0  0  0  0  0  0  0  0  0  0  0  0
   13.9891   -0.7402   17.6855 H   0  0  0  0  0  0  0  0  0  0  0  0
  1  2  1  0
  2  3  1  0
  3  4  2  0
  4  5  1  0
  5  6  1  0
  6  7  1  0
  7  8  1  0
  8  9  1  0
  7 10  1  0
 10 11  2  0
 11 12  1  0
 12 13  2  0
 13 14  1  0
 14 15  2  0
 15 16  1  0
  6 17  2  0
 17 18  1  0
 18 19  1  0
 19 20  2  0
 20  3  1  0
 18  4  1  0
 15 10  1  0
  1 21  1  0
  1 22  1  0
  1 23  1  0
  2 24  1  0
  2 25  1  0
  5 26  1  0
  5 27  1  0
  8 28  1  0
  8 29  1  0
  9 30  1  0
 11 31  1  0
 12 32  1  0
 13 33  1  0
 14 34  1  0
 16 35  1  0
 17 36  1  0
 18 37  1  0
 19 38  1  0
 20 39  1  0
M  END
>  <Energy>  (570) 
52.606474465232253

>  <compound_id>  (570) 
1874

>  <target_id>  (570) 
1

>  <reference_id>  (570) 
26

>  <inspiration_ids>  (570) 
[26, 120]

>  <energy_score>  (570) 
-48.04891345499816

>  <distance_score>  (570) 
1.2952467731145976

>  <path>  (570) 
/opt/xchem-fragalysis-2/maxwin/BulkDock/SCRATCH/505732/C1874-P26/C1874-P26.minimised.mol

>  <scratch_subdir>  (570) 
/opt/xchem-fragalysis-2/maxwin/BulkDock/SCRATCH/505732/C1874-P26

>  <fragmenstein_runtime>  (570) 
8.952812194824219

>  <fragmenstein_outcome>  (570) 
too moved

>  <fragmenstein_mode>  (570) 
expansion

>  <fragmenstein_error>  (570) 


$$$$
C1874-P120
     RDKit          3D

 39 41  0  0  0  0  0  0  0  0999 V2000
   15.6931    1.7853   17.9986 C   0  0  0  0  0  0  0  0  0  0  0  0
   16.2621    0.8406   16.9482 C   0  0  0  0  0  0  0  0  0  0  0  0
   15.2254    0.1802   16.1011 C   0  0  0  0  0  0  0  0  0  0  0  0
   14.9918    0.3613   14.7936 C   0  0  0  0  0  0  0  0  0  0  0  0
   15.3838    1.4531   13.8721 C   0  0  0  0  0  0  0  0  0  0  0  0
   14.0044    1.9243   13.4393 C   0  0  0  0  0  0  0  0  0  0  0  0
   13.8251    3.2503   13.0885 N   0  0  0  0  0  0  0  0  0  0  0  0
   13.4926    4.2173   14.1406 C   0  0  0  0  0  0  0  0  0  0  0  0
   14.0808    3.8759   15.3940 O   0  0  0  0  0  0  0  0  0  0  0  0
   13.5124    3.5998   11.7412 C   0  0  0  0  0  0  0  0  0  0  0  0
   13.9475    2.7477   10.6973 C   0  0  0  0  0  0  0  0  0  0  0  0
   13.6958    3.0155    9.3466 C   0  0  0  0  0  0  0  0  0  0  0  0
   12.9968    4.1573    8.9859 C   0  0  0  0  0  0  0  0  0  0  0  0
   12.5491    5.0252    9.9761 C   0  0  0  0  0  0  0  0  0  0  0  0
   12.7995    4.7499   11.3310 C   0  0  0  0  0  0  0  0  0  0  0  0
   12.2881    5.6358   12.2460 O   0  0  0  0  0  0  0  0  0  0  0  0
   13.0514    1.0074   13.7308 C   0  0  0  0  0  0  0  0  0  0  0  0
   13.6643   -0.1998   14.3705 C   0  0  0  0  0  0  0  0  0  0  0  0
   13.1426   -0.6829   15.6885 C   0  0  0  0  0  0  0  0  0  0  0  0
   14.0903   -0.5459   16.6357 C   0  0  0  0  0  0  0  0  0  0  0  0
   15.0636    1.2535   18.7196 H   0  0  0  0  0  0  0  0  0  0  0  0
   16.5074    2.2595   18.5562 H   0  0  0  0  0  0  0  0  0  0  0  0
   15.0936    2.5771   17.5410 H   0  0  0  0  0  0  0  0  0  0  0  0
   16.8522    0.0638   17.4500 H   0  0  0  0  0  0  0  0  0  0  0  0
   16.9686    1.3980   16.3220 H   0  0  0  0  0  0  0  0  0  0  0  0
   15.9576    1.0799   13.0186 H   0  0  0  0  0  0  0  0  0  0  0  0
   15.9480    2.2450   14.3717 H   0  0  0  0  0  0  0  0  0  0  0  0
   13.8981    5.2054   13.9034 H   0  0  0  0  0  0  0  0  0  0  0  0
   12.4099    4.2787   14.2972 H   0  0  0  0  0  0  0  0  0  0  0  0
   13.7207    2.9990   15.6052 H   0  0  0  0  0  0  0  0  0  0  0  0
   14.5148    1.8488   10.9285 H   0  0  0  0  0  0  0  0  0  0  0  0
   14.0562    2.3283    8.5856 H   0  0  0  0  0  0  0  0  0  0  0  0
   12.8015    4.3715    7.9388 H   0  0  0  0  0  0  0  0  0  0  0  0
   11.9963    5.9114    9.6783 H   0  0  0  0  0  0  0  0  0  0  0  0
   11.9821    6.4315   11.7812 H   0  0  0  0  0  0  0  0  0  0  0  0
   11.9911    1.1429   13.5799 H   0  0  0  0  0  0  0  0  0  0  0  0
   13.7646   -1.0237   13.6560 H   0  0  0  0  0  0  0  0  0  0  0  0
   12.1852   -1.1626   15.8229 H   0  0  0  0  0  0  0  0  0  0  0  0
   14.0066   -0.8578   17.6660 H   0  0  0  0  0  0  0  0  0  0  0  0
  1  2  1  0
  2  3  1  0
  3  4  2  0
  4  5  1  0
  5  6  1  0
  6  7  1  0
  7  8  1  0
  8  9  1  0
  7 10  1  0
 10 11  2  0
 11 12  1  0
 12 13  2  0
 13 14  1  0
 14 15  2  0
 15 16  1  0
  6 17  2  0
 17 18  1  0
 18 19  1  0
 19 20  2  0
 20  3  1  0
 18  4  1  0
 15 10  1  0
  1 21  1  0
  1 22  1  0
  1 23  1  0
  2 24  1  0
  2 25  1  0
  5 26  1  0
  5 27  1  0
  8 28  1  0
  8 29  1  0
  9 30  1  0
 11 31  1  0
 12 32  1  0
 13 33  1  0
 14 34  1  0
 16 35  1  0
 17 36  1  0
 18 37  1  0
 19 38  1  0
 20 39  1  0
M  END
>  <Energy>  (571) 
52.137612327992848

>  <compound_id>  (571) 
1874

>  <target_id>  (571) 
1

>  <reference_id>  (571) 
120

>  <inspiration_ids>  (571) 
[26, 120]

>  <energy_score>  (571) 
-48.51777559223724

>  <distance_score>  (571) 
1.3274181152881919

>  <path>  (571) 
/opt/xchem-fragalysis-2/maxwin/BulkDock/SCRATCH/505732/C1874-P120/C1874-P120.minimised.mol

>  <scratch_subdir>  (571) 
/opt/xchem-fragalysis-2/maxwin/BulkDock/SCRATCH/505732/C1874-P120

>  <fragmenstein_runtime>  (571) 
8.890397071838379

>  <fragmenstein_outcome>  (571) 
too moved

>  <fragmenstein_mode>  (571) 
expansion

>  <fragmenstein_error>  (571) 


$$$$
C1875-P26
     RDKit          3D

 45 47  0  0  0  0  0  0  0  0999 V2000
   15.9240   -1.1318   14.6437 C   0  0  0  0  0  0  0  0  0  0  0  0
   15.7081    0.0346   15.6239 C   0  0  0  0  0  0  0  0  0  0  0  0
   15.2577    1.3162   14.8787 C   0  0  0  0  0  0  0  0  0  0  0  0
   16.1628    1.9451   14.0234 C   0  0  0  0  0  0  0  0  0  0  0  0
   15.5806    3.3499   13.2716 S   0  0  0  0  0  0  0  0  0  0  0  0
   14.0859    3.1755   14.0402 C   0  0  0  0  0  0  0  0  0  0  0  0
   14.0071    2.0688   14.8754 C   0  0  0  0  0  0  0  0  0  0  0  0
   12.7136    1.8226   15.5910 C   0  0  0  0  0  0  0  0  0  0  0  0
   11.5619    1.3314   14.8375 N   0  0  0  0  0  0  0  0  0  0  0  0
   11.5878   -0.0105   14.4555 C   0  0  0  0  0  0  0  0  0  0  0  0
   10.7796   -0.9213   15.1450 C   0  0  0  0  0  0  0  0  0  0  0  0
   10.9071   -2.2799   14.8986 C   0  0  0  0  0  0  0  0  0  0  0  0
   11.8287   -2.7272   13.9666 C   0  0  0  0  0  0  0  0  0  0  0  0
   12.6601   -1.8471   13.2950 C   0  0  0  0  0  0  0  0  0  0  0  0
   12.4955   -0.4886   13.4993 C   0  0  0  0  0  0  0  0  0  0  0  0
   13.1861    0.3857   12.7082 O   0  0  0  0  0  0  0  0  0  0  0  0
   14.9984   -0.3402   16.9681 C   0  0  0  0  0  0  0  0  0  0  0  0
   15.8755   -1.1867   17.9095 C   0  0  0  0  0  0  0  0  0  0  0  0
   15.9129   -2.6689   17.5499 C   0  0  0  0  0  0  0  0  0  0  0  0
   14.6003   -3.1881   17.0383 C   0  0  0  0  0  0  0  0  0  0  0  0
   14.4626   -4.2790   16.5120 O   0  0  0  0  0  0  0  0  0  0  0  0
   13.5202   -2.3940   17.1942 N   0  0  0  0  0  0  0  0  0  0  0  0
   13.6410   -1.0260   16.8038 C   0  0  0  0  0  0  0  0  0  0  0  0
   15.0497   -1.7736   14.5496 H   0  0  0  0  0  0  0  0  0  0  0  0
   16.1821   -0.7885   13.6361 H   0  0  0  0  0  0  0  0  0  0  0  0
   16.7571   -1.7593   14.9713 H   0  0  0  0  0  0  0  0  0  0  0  0
   16.7280    0.3108   15.9428 H   0  0  0  0  0  0  0  0  0  0  0  0
   17.1772    1.6327   13.8127 H   0  0  0  0  0  0  0  0  0  0  0  0
   13.2976    3.8879   13.8353 H   0  0  0  0  0  0  0  0  0  0  0  0
   12.8534    1.2692   16.5111 H   0  0  0  0  0  0  0  0  0  0  0  0
   12.3997    2.8060   15.9752 H   0  0  0  0  0  0  0  0  0  0  0  0
   10.6927    1.5719   15.2983 H   0  0  0  0  0  0  0  0  0  0  0  0
   10.0335   -0.5685   15.8435 H   0  0  0  0  0  0  0  0  0  0  0  0
   10.2527   -3.0091   15.3456 H   0  0  0  0  0  0  0  0  0  0  0  0
   11.8198   -3.7678   13.6943 H   0  0  0  0  0  0  0  0  0  0  0  0
   13.3670   -2.2232   12.5638 H   0  0  0  0  0  0  0  0  0  0  0  0
   14.0091   -0.0356   12.4185 H   0  0  0  0  0  0  0  0  0  0  0  0
   14.8303    0.6135   17.4881 H   0  0  0  0  0  0  0  0  0  0  0  0
   15.4610   -1.0964   18.9235 H   0  0  0  0  0  0  0  0  0  0  0  0
   16.8947   -0.7878   17.9671 H   0  0  0  0  0  0  0  0  0  0  0  0
   16.1899   -3.2531   18.4346 H   0  0  0  0  0  0  0  0  0  0  0  0
   16.6753   -2.8583   16.7900 H   0  0  0  0  0  0  0  0  0  0  0  0
   12.6961   -2.8670   16.8402 H   0  0  0  0  0  0  0  0  0  0  0  0
   12.8775   -0.5056   17.3767 H   0  0  0  0  0  0  0  0  0  0  0  0
   13.3877   -1.0007   15.7635 H   0  0  0  0  0  0  0  0  0  0  0  0
  1  2  1  0
  2  3  1  0
  3  4  2  0
  4  5  1  0
  5  6  1  0
  6  7  2  0
  7  8  1  0
  8  9  1  0
  9 10  1  0
 10 11  2  0
 11 12  1  0
 12 13  2  0
 13 14  1  0
 14 15  2  0
 15 16  1  0
  2 17  1  0
 17 18  1  0
 18 19  1  0
 19 20  1  0
 20 21  2  0
 20 22  1  0
 22 23  1  0
  7  3  1  0
 15 10  1  0
 23 17  1  0
  1 24  1  0
  1 25  1  0
  1 26  1  0
  2 27  1  0
  4 28  1  0
  6 29  1  0
  8 30  1  0
  8 31  1  0
  9 32  1  0
 11 33  1  0
 12 34  1  0
 13 35  1  0
 14 36  1  0
 16 37  1  0
 17 38  1  0
 18 39  1  0
 18 40  1  0
 19 41  1  0
 19 42  1  0
 22 43  1  0
 23 44  1  0
 23 45  1  0
M  END
>  <Energy>  (572) 
51.125597956696929

>  <compound_id>  (572) 
1875

>  <target_id>  (572) 
1

>  <reference_id>  (572) 
26

>  <inspiration_ids>  (572) 
[26, 122]

>  <energy_score>  (572) 
-24.502010272670447

>  <distance_score>  (572) 
2.171259894143991

>  <path>  (572) 
/opt/xchem-fragalysis-2/maxwin/BulkDock/SCRATCH/505732/C1875-P26/C1875-P26.minimised.mol

>  <scratch_subdir>  (572) 
/opt/xchem-fragalysis-2/maxwin/BulkDock/SCRATCH/505732/C1875-P26

>  <fragmenstein_runtime>  (572) 
1.8184640407562256

>  <fragmenstein_outcome>  (572) 
too moved

>  <fragmenstein_mode>  (572) 
expansion

>  <fragmenstein_error>  (572) 


$$$$
C1875-P122
     RDKit          3D

 45 47  0  0  0  0  0  0  0  0999 V2000
   15.6756   -1.5853   13.2068 C   0  0  0  0  0  0  0  0  0  0  0  0
   15.7753   -0.6044   14.3814 C   0  0  0  0  0  0  0  0  0  0  0  0
   15.4644    0.8326   13.9335 C   0  0  0  0  0  0  0  0  0  0  0  0
   16.4653    1.7620   13.6908 C   0  0  0  0  0  0  0  0  0  0  0  0
   15.8918    3.3129   13.2822 S   0  0  0  0  0  0  0  0  0  0  0  0
   14.2844    2.7815   13.3611 C   0  0  0  0  0  0  0  0  0  0  0  0
   14.1771    1.4397   13.6831 C   0  0  0  0  0  0  0  0  0  0  0  0
   12.8475    0.7871   13.8538 C   0  0  0  0  0  0  0  0  0  0  0  0
   12.5088    0.7512   15.2618 N   0  0  0  0  0  0  0  0  0  0  0  0
   11.1514    0.5553   15.5060 C   0  0  0  0  0  0  0  0  0  0  0  0
   10.4308    1.5913   16.1107 C   0  0  0  0  0  0  0  0  0  0  0  0
    9.1197    1.3867   16.5006 C   0  0  0  0  0  0  0  0  0  0  0  0
    8.5341    0.1508   16.2654 C   0  0  0  0  0  0  0  0  0  0  0  0
    9.1694   -0.8189   15.5171 C   0  0  0  0  0  0  0  0  0  0  0  0
   10.4847   -0.6195   15.1659 C   0  0  0  0  0  0  0  0  0  0  0  0
   11.1180   -1.6277   14.5054 O   0  0  0  0  0  0  0  0  0  0  0  0
   15.0858   -1.0795   15.6990 C   0  0  0  0  0  0  0  0  0  0  0  0
   16.0647   -1.9008   16.5650 C   0  0  0  0  0  0  0  0  0  0  0  0
   15.3345   -2.5262   17.7494 C   0  0  0  0  0  0  0  0  0  0  0  0
   14.2259   -3.4269   17.2788 C   0  0  0  0  0  0  0  0  0  0  0  0
   13.7261   -4.3030   17.9656 O   0  0  0  0  0  0  0  0  0  0  0  0
   13.7647   -3.2059   16.0217 N   0  0  0  0  0  0  0  0  0  0  0  0
   13.7679   -1.8605   15.5290 C   0  0  0  0  0  0  0  0  0  0  0  0
   14.6828   -1.5923   12.7474 H   0  0  0  0  0  0  0  0  0  0  0  0
   16.3830   -1.3074   12.4166 H   0  0  0  0  0  0  0  0  0  0  0  0
   15.9209   -2.6033   13.5238 H   0  0  0  0  0  0  0  0  0  0  0  0
   16.8504   -0.5760   14.6221 H   0  0  0  0  0  0  0  0  0  0  0  0
   17.5331    1.6061   13.7689 H   0  0  0  0  0  0  0  0  0  0  0  0
   13.4807    3.4792   13.1661 H   0  0  0  0  0  0  0  0  0  0  0  0
   12.0975    1.3629   13.2919 H   0  0  0  0  0  0  0  0  0  0  0  0
   12.8644   -0.2048   13.3972 H   0  0  0  0  0  0  0  0  0  0  0  0
   12.8495    1.5919   15.7243 H   0  0  0  0  0  0  0  0  0  0  0  0
   10.9092    2.5404   16.3434 H   0  0  0  0  0  0  0  0  0  0  0  0
    8.5757    2.1773   17.0050 H   0  0  0  0  0  0  0  0  0  0  0  0
    7.5333   -0.0678   16.6062 H   0  0  0  0  0  0  0  0  0  0  0  0
    8.6463   -1.7257   15.2308 H   0  0  0  0  0  0  0  0  0  0  0  0
   10.4757   -1.9024   13.8134 H   0  0  0  0  0  0  0  0  0  0  0  0
   14.8570   -0.1769   16.2835 H   0  0  0  0  0  0  0  0  0  0  0  0
   16.8738   -1.2569   16.9292 H   0  0  0  0  0  0  0  0  0  0  0  0
   16.5286   -2.6920   15.9618 H   0  0  0  0  0  0  0  0  0  0  0  0
   14.9051   -1.7546   18.3974 H   0  0  0  0  0  0  0  0  0  0  0  0
   16.0392   -3.1237   18.3372 H   0  0  0  0  0  0  0  0  0  0  0  0
   12.9324   -3.7538   15.8336 H   0  0  0  0  0  0  0  0  0  0  0  0
   13.0134   -1.3783   16.1499 H   0  0  0  0  0  0  0  0  0  0  0  0
   13.4436   -1.9173   14.4950 H   0  0  0  0  0  0  0  0  0  0  0  0
  1  2  1  0
  2  3  1  0
  3  4  2  0
  4  5  1  0
  5  6  1  0
  6  7  2  0
  7  8  1  0
  8  9  1  0
  9 10  1  0
 10 11  2  0
 11 12  1  0
 12 13  2  0
 13 14  1  0
 14 15  2  0
 15 16  1  0
  2 17  1  0
 17 18  1  0
 18 19  1  0
 19 20  1  0
 20 21  2  0
 20 22  1  0
 22 23  1  0
  7  3  1  0
 15 10  1  0
 23 17  1  0
  1 24  1  0
  1 25  1  0
  1 26  1  0
  2 27  1  0
  4 28  1  0
  6 29  1  0
  8 30  1  0
  8 31  1  0
  9 32  1  0
 11 33  1  0
 12 34  1  0
 13 35  1  0
 14 36  1  0
 16 37  1  0
 17 38  1  0
 18 39  1  0
 18 40  1  0
 19 41  1  0
 19 42  1  0
 22 43  1  0
 23 44  1  0
 23 45  1  0
M  END
>  <Energy>  (573) 
29.954220995225938

>  <compound_id>  (573) 
1875

>  <target_id>  (573) 
1

>  <reference_id>  (573) 
122

>  <inspiration_ids>  (573) 
[26, 122]

>  <energy_score>  (573) 
-45.67338723414085

>  <distance_score>  (573) 
1.910918308454063

>  <path>  (573) 
/opt/xchem-fragalysis-2/maxwin/BulkDock/SCRATCH/505732/C1875-P122/C1875-P122.minimised.mol

>  <scratch_subdir>  (573) 
/opt/xchem-fragalysis-2/maxwin/BulkDock/SCRATCH/505732/C1875-P122

>  <fragmenstein_runtime>  (573) 
1.8727760314941406

>  <fragmenstein_outcome>  (573) 
too moved

>  <fragmenstein_mode>  (573) 
expansion

>  <fragmenstein_error>  (573) 


$$$$
C1876-P26
     RDKit          3D

 49 50  0  0  0  0  0  0  0  0999 V2000
   18.8267   -1.1008   18.2901 C   0  0  0  0  0  0  0  0  0  0  0  0
   17.7393   -1.2520   17.2895 C   0  0  0  0  0  0  0  0  0  0  0  0
   17.6021   -2.2234   16.3640 C   0  0  0  0  0  0  0  0  0  0  0  0
   16.3637   -1.9861   15.5610 C   0  0  0  0  0  0  0  0  0  0  0  0
   15.4290   -3.0470   15.8183 N   0  0  0  0  0  0  0  0  0  0  0  0
   14.0566   -2.7725   15.6144 C   0  0  0  0  0  0  0  0  0  0  0  0
   13.5259   -2.0357   14.5471 C   0  0  0  0  0  0  0  0  0  0  0  0
   12.1484   -1.9972   14.3402 C   0  0  0  0  0  0  0  0  0  0  0  0
   11.3065   -2.7648   15.1387 C   0  0  0  0  0  0  0  0  0  0  0  0
   11.8370   -3.5228   16.1780 C   0  0  0  0  0  0  0  0  0  0  0  0
   13.1851   -3.4735   16.4406 C   0  0  0  0  0  0  0  0  0  0  0  0
   13.7113   -4.1335   17.5151 O   0  0  0  0  0  0  0  0  0  0  0  0
   15.8429   -0.7668   16.2090 C   0  0  0  0  0  0  0  0  0  0  0  0
   16.6163   -0.3385   17.2044 C   0  0  0  0  0  0  0  0  0  0  0  0
   16.3144    0.9096   17.9728 C   0  0  0  0  0  0  0  0  0  0  0  0
   15.4182    1.8956   17.1684 C   0  0  0  0  0  0  0  0  0  0  0  0
   16.1417    2.4267   15.8865 C   0  0  0  0  0  0  0  0  0  0  0  0
   15.4081    2.6827   14.5093 C   0  0  0  0  0  0  0  0  0  0  0  0
   16.4359    3.3848   13.5864 C   0  0  0  0  0  0  0  0  0  0  0  0
   14.9837    1.3843   13.8049 C   0  0  0  0  0  0  0  0  0  0  0  0
   14.2043    3.6250   14.6537 C   0  0  0  0  0  0  0  0  0  0  0  0
   13.1183    3.0065   15.3238 O   0  0  0  0  0  0  0  0  0  0  0  0
   19.5562   -1.9138   18.2124 H   0  0  0  0  0  0  0  0  0  0  0  0
   18.4210   -1.1121   19.3069 H   0  0  0  0  0  0  0  0  0  0  0  0
   19.3611   -0.1572   18.1396 H   0  0  0  0  0  0  0  0  0  0  0  0
   18.2842   -3.0435   16.2051 H   0  0  0  0  0  0  0  0  0  0  0  0
   16.5802   -1.8471   14.4971 H   0  0  0  0  0  0  0  0  0  0  0  0
   15.6700   -3.8526   15.2355 H   0  0  0  0  0  0  0  0  0  0  0  0
   14.1750   -1.5304   13.8398 H   0  0  0  0  0  0  0  0  0  0  0  0
   11.7353   -1.4224   13.5176 H   0  0  0  0  0  0  0  0  0  0  0  0
   10.2446   -2.7933   14.9159 H   0  0  0  0  0  0  0  0  0  0  0  0
   11.2312   -4.1935   16.7645 H   0  0  0  0  0  0  0  0  0  0  0  0
   14.6548   -3.8621   17.4833 H   0  0  0  0  0  0  0  0  0  0  0  0
   14.9174   -0.3067   15.9242 H   0  0  0  0  0  0  0  0  0  0  0  0
   15.8160    0.6470   18.9130 H   0  0  0  0  0  0  0  0  0  0  0  0
   17.2484    1.4230   18.2304 H   0  0  0  0  0  0  0  0  0  0  0  0
   14.4506    1.4468   16.9260 H   0  0  0  0  0  0  0  0  0  0  0  0
   15.1901    2.7548   17.8121 H   0  0  0  0  0  0  0  0  0  0  0  0
   17.0045    1.7856   15.6635 H   0  0  0  0  0  0  0  0  0  0  0  0
   16.5960    3.3819   16.1907 H   0  0  0  0  0  0  0  0  0  0  0  0
   16.7627    4.3409   14.0108 H   0  0  0  0  0  0  0  0  0  0  0  0
   16.0089    3.5912   12.5982 H   0  0  0  0  0  0  0  0  0  0  0  0
   17.3256    2.7620   13.4390 H   0  0  0  0  0  0  0  0  0  0  0  0
   14.1921    0.8679   14.3489 H   0  0  0  0  0  0  0  0  0  0  0  0
   14.5909    1.5932   12.8026 H   0  0  0  0  0  0  0  0  0  0  0  0
   15.8314    0.7020   13.6850 H   0  0  0  0  0  0  0  0  0  0  0  0
   13.8411    3.9643   13.6766 H   0  0  0  0  0  0  0  0  0  0  0  0
   14.4813    4.5185   15.2238 H   0  0  0  0  0  0  0  0  0  0  0  0
   12.7211    2.3552   14.7233 H   0  0  0  0  0  0  0  0  0  0  0  0
  1  2  1  0
  2  3  2  0
  3  4  1  0
  4  5  1  0
  5  6  1  0
  6  7  2  0
  7  8  1  0
  8  9  2  0
  9 10  1  0
 10 11  2  0
 11 12  1  0
  4 13  1  0
 13 14  2  0
 14 15  1  0
 15 16  1  0
 16 17  1  0
 17 18  1  0
 18 19  1  0
 18 20  1  0
 18 21  1  0
 21 22  1  0
 14  2  1  0
 11  6  1  0
  1 23  1  0
  1 24  1  0
  1 25  1  0
  3 26  1  0
  4 27  1  0
  5 28  1  0
  7 29  1  0
  8 30  1  0
  9 31  1  0
 10 32  1  0
 12 33  1  0
 13 34  1  0
 15 35  1  0
 15 36  1  0
 16 37  1  0
 16 38  1  0
 17 39  1  0
 17 40  1  0
 19 41  1  0
 19 42  1  0
 19 43  1  0
 20 44  1  0
 20 45  1  0
 20 46  1  0
 21 47  1  0
 21 48  1  0
 22 49  1  0
M  END
>  <Energy>  (574) 
39.837572085943847

>  <compound_id>  (574) 
1876

>  <target_id>  (574) 
1

>  <reference_id>  (574) 
26

>  <inspiration_ids>  (574) 
[26, 124]

>  <energy_score>  (574) 
-19.445514166893844

>  <distance_score>  (574) 
1.6704938621665215

>  <path>  (574) 
/opt/xchem-fragalysis-2/maxwin/BulkDock/SCRATCH/505732/C1876-P26/C1876-P26.minimised.mol

>  <scratch_subdir>  (574) 
/opt/xchem-fragalysis-2/maxwin/BulkDock/SCRATCH/505732/C1876-P26

>  <fragmenstein_runtime>  (574) 
169.09873127937317

>  <fragmenstein_outcome>  (574) 
too moved

>  <fragmenstein_mode>  (574) 
expansion

>  <fragmenstein_error>  (574) 


$$$$
C1876-P124
     RDKit          3D

 49 50  0  0  0  0  0  0  0  0999 V2000
   19.3432   -1.2303   17.5690 C   0  0  0  0  0  0  0  0  0  0  0  0
   18.0498   -1.3868   16.8556 C   0  0  0  0  0  0  0  0  0  0  0  0
   17.6573   -2.4196   16.0837 C   0  0  0  0  0  0  0  0  0  0  0  0
   16.3003   -2.1416   15.5275 C   0  0  0  0  0  0  0  0  0  0  0  0
   15.3377   -3.1029   15.9597 N   0  0  0  0  0  0  0  0  0  0  0  0
   13.9780   -2.8470   15.6975 C   0  0  0  0  0  0  0  0  0  0  0  0
   13.5101   -2.1011   14.5986 C   0  0  0  0  0  0  0  0  0  0  0  0
   12.1516   -2.0179   14.3035 C   0  0  0  0  0  0  0  0  0  0  0  0
   11.2531   -2.7736   15.0326 C   0  0  0  0  0  0  0  0  0  0  0  0
   11.7142   -3.5485   16.0870 C   0  0  0  0  0  0  0  0  0  0  0  0
   13.0400   -3.5178   16.4707 C   0  0  0  0  0  0  0  0  0  0  0  0
   13.4409   -4.1409   17.6230 O   0  0  0  0  0  0  0  0  0  0  0  0
   15.9660   -0.8759   16.2119 C   0  0  0  0  0  0  0  0  0  0  0  0
   16.9765   -0.4116   16.9418 C   0  0  0  0  0  0  0  0  0  0  0  0
   16.9290    0.8656   17.7073 C   0  0  0  0  0  0  0  0  0  0  0  0
   15.5834    1.5985   17.6205 C   0  0  0  0  0  0  0  0  0  0  0  0
   15.2993    2.5922   16.4465 C   0  0  0  0  0  0  0  0  0  0  0  0
   15.5168    2.4316   14.8805 C   0  0  0  0  0  0  0  0  0  0  0  0
   17.0147    2.3531   14.5469 C   0  0  0  0  0  0  0  0  0  0  0  0
   14.7653    1.2681   14.2148 C   0  0  0  0  0  0  0  0  0  0  0  0
   14.9590    3.7252   14.2191 C   0  0  0  0  0  0  0  0  0  0  0  0
   13.5540    3.7996   14.4244 O   0  0  0  0  0  0  0  0  0  0  0  0
   20.0050   -2.0836   17.3870 H   0  0  0  0  0  0  0  0  0  0  0  0
   19.1831   -1.1564   18.6495 H   0  0  0  0  0  0  0  0  0  0  0  0
   19.8622   -0.3272   17.2321 H   0  0  0  0  0  0  0  0  0  0  0  0
   18.2368   -3.2975   15.8453 H   0  0  0  0  0  0  0  0  0  0  0  0
   16.3497   -2.0430   14.4381 H   0  0  0  0  0  0  0  0  0  0  0  0
   15.4379   -3.3664   16.9398 H   0  0  0  0  0  0  0  0  0  0  0  0
   14.1987   -1.6018   13.9259 H   0  0  0  0  0  0  0  0  0  0  0  0
   11.8055   -1.4118   13.4719 H   0  0  0  0  0  0  0  0  0  0  0  0
   10.2042   -2.7763   14.7581 H   0  0  0  0  0  0  0  0  0  0  0  0
   11.0472   -4.2221   16.5916 H   0  0  0  0  0  0  0  0  0  0  0  0
   12.6319   -4.3384   18.1334 H   0  0  0  0  0  0  0  0  0  0  0  0
   15.0000   -0.4159   16.1197 H   0  0  0  0  0  0  0  0  0  0  0  0
   17.1181    0.6289   18.7624 H   0  0  0  0  0  0  0  0  0  0  0  0
   17.7355    1.5332   17.3844 H   0  0  0  0  0  0  0  0  0  0  0  0
   14.7565    0.8932   17.7204 H   0  0  0  0  0  0  0  0  0  0  0  0
   15.5098    2.2097   18.5327 H   0  0  0  0  0  0  0  0  0  0  0  0
   15.8564    3.5014   16.7221 H   0  0  0  0  0  0  0  0  0  0  0  0
   14.2453    2.8693   16.5906 H   0  0  0  0  0  0  0  0  0  0  0  0
   17.4683    1.4292   14.9105 H   0  0  0  0  0  0  0  0  0  0  0  0
   17.5639    3.1924   14.9876 H   0  0  0  0  0  0  0  0  0  0  0  0
   17.1782    2.3848   13.4633 H   0  0  0  0  0  0  0  0  0  0  0  0
   13.8566    1.0121   14.7668 H   0  0  0  0  0  0  0  0  0  0  0  0
   14.4610    1.5123   13.1893 H   0  0  0  0  0  0  0  0  0  0  0  0
   15.3993    0.3883   14.1085 H   0  0  0  0  0  0  0  0  0  0  0  0
   15.1497    3.7330   13.1394 H   0  0  0  0  0  0  0  0  0  0  0  0
   15.4196    4.6216   14.6490 H   0  0  0  0  0  0  0  0  0  0  0  0
   13.2204    4.5456   13.8995 H   0  0  0  0  0  0  0  0  0  0  0  0
  1  2  1  0
  2  3  2  0
  3  4  1  0
  4  5  1  0
  5  6  1  0
  6  7  2  0
  7  8  1  0
  8  9  2  0
  9 10  1  0
 10 11  2  0
 11 12  1  0
  4 13  1  0
 13 14  2  0
 14 15  1  0
 15 16  1  0
 16 17  1  0
 17 18  1  0
 18 19  1  0
 18 20  1  0
 18 21  1  0
 21 22  1  0
 14  2  1  0
 11  6  1  0
  1 23  1  0
  1 24  1  0
  1 25  1  0
  3 26  1  0
  4 27  1  0
  5 28  1  0
  7 29  1  0
  8 30  1  0
  9 31  1  0
 10 32  1  0
 12 33  1  0
 13 34  1  0
 15 35  1  0
 15 36  1  0
 16 37  1  0
 16 38  1  0
 17 39  1  0
 17 40  1  0
 19 41  1  0
 19 42  1  0
 19 43  1  0
 20 44  1  0
 20 45  1  0
 20 46  1  0
 21 47  1  0
 21 48  1  0
 22 49  1  0
M  END
>  <Energy>  (575) 
49.359044837304538

>  <compound_id>  (575) 
1876

>  <target_id>  (575) 
1

>  <reference_id>  (575) 
124

>  <inspiration_ids>  (575) 
[26, 124]

>  <energy_score>  (575) 
-9.924041415532571

>  <distance_score>  (575) 
1.6093364135476698

>  <path>  (575) 
/opt/xchem-fragalysis-2/maxwin/BulkDock/SCRATCH/505732/C1876-P124/C1876-P124.minimised.mol

>  <scratch_subdir>  (575) 
/opt/xchem-fragalysis-2/maxwin/BulkDock/SCRATCH/505732/C1876-P124

>  <fragmenstein_runtime>  (575) 
158.08929681777954

>  <fragmenstein_outcome>  (575) 
too moved

>  <fragmenstein_mode>  (575) 
expansion

>  <fragmenstein_error>  (575) 


$$$$
C1873-P26
     RDKit          3D

 31 32  0  0  0  0  0  0  0  0999 V2000
   15.6391    1.2372   13.9698 C   0  0  0  0  0  0  0  0  0  0  0  0
   16.8260    1.2537   14.9238 C   0  0  0  0  0  0  0  0  0  0  0  0
   17.9869    0.4838   14.4744 N   0  0  0  0  0  0  0  0  0  0  0  0
   19.0936    0.9524   13.8209 C   0  0  0  0  0  0  0  0  0  0  0  0
   20.0029    0.0143   13.6498 N   0  0  0  0  0  0  0  0  0  0  0  0
   19.4647   -1.1140   14.2062 C   0  0  0  0  0  0  0  0  0  0  0  0
   18.2227   -0.8484   14.7362 C   0  0  0  0  0  0  0  0  0  0  0  0
   17.2766   -1.5989   15.3124 N   0  0  0  0  0  0  0  0  0  0  0  0
   17.3127   -1.6930   16.5119 C   0  0  0  0  0  0  0  0  0  0  0  0
   16.2533   -2.2357   17.5163 N   0  0  0  0  0  0  0  0  0  0  0  0
   14.9529   -2.6700   17.3098 C   0  0  0  0  0  0  0  0  0  0  0  0
   14.3773   -3.4612   18.2991 C   0  0  0  0  0  0  0  0  0  0  0  0
   13.1346   -4.0401   18.0936 C   0  0  0  0  0  0  0  0  0  0  0  0
   12.4369   -3.8320   16.9062 C   0  0  0  0  0  0  0  0  0  0  0  0
   12.9441   -2.9797   15.9465 C   0  0  0  0  0  0  0  0  0  0  0  0
   14.2079   -2.4359   16.1324 C   0  0  0  0  0  0  0  0  0  0  0  0
   14.6405   -1.6770   15.0811 O   0  0  0  0  0  0  0  0  0  0  0  0
   15.3710    0.2232   13.6673 H   0  0  0  0  0  0  0  0  0  0  0  0
   14.7689    1.7130   14.4315 H   0  0  0  0  0  0  0  0  0  0  0  0
   15.8823    1.7887   13.0550 H   0  0  0  0  0  0  0  0  0  0  0  0
   17.1690    2.2843   15.0727 H   0  0  0  0  0  0  0  0  0  0  0  0
   16.5314    0.8739   15.9071 H   0  0  0  0  0  0  0  0  0  0  0  0
   19.1876    1.9815   13.4994 H   0  0  0  0  0  0  0  0  0  0  0  0
   19.9848   -2.0616   14.1839 H   0  0  0  0  0  0  0  0  0  0  0  0
   18.1255   -1.3216   17.1699 H   0  0  0  0  0  0  0  0  0  0  0  0
   16.6475   -2.2442   18.4483 H   0  0  0  0  0  0  0  0  0  0  0  0
   14.9006   -3.6630   19.2297 H   0  0  0  0  0  0  0  0  0  0  0  0
   12.7096   -4.6623   18.8757 H   0  0  0  0  0  0  0  0  0  0  0  0
   11.4923   -4.3331   16.7312 H   0  0  0  0  0  0  0  0  0  0  0  0
   12.3920   -2.7876   15.0306 H   0  0  0  0  0  0  0  0  0  0  0  0
   15.6143   -1.7767   15.0348 H   0  0  0  0  0  0  0  0  0  0  0  0
  1  2  1  0
  2  3  1  0
  3  4  1  0
  4  5  2  0
  5  6  1  0
  6  7  2  0
  7  8  1  0
  8  9  2  3
  9 10  1  0
 10 11  1  0
 11 12  2  0
 12 13  1  0
 13 14  2  0
 14 15  1  0
 15 16  2  0
 16 17  1  0
  7  3  1  0
 16 11  1  0
  1 18  1  0
  1 19  1  0
  1 20  1  0
  2 21  1  0
  2 22  1  0
  4 23  1  0
  6 24  1  0
  9 25  1  0
 10 26  1  0
 12 27  1  0
 13 28  1  0
 14 29  1  0
 15 30  1  0
 17 31  1  0
M  END
>  <Energy>  (576) 
30.434607588469845

>  <compound_id>  (576) 
1873

>  <target_id>  (576) 
1

>  <reference_id>  (576) 
26

>  <inspiration_ids>  (576) 
[26, 146]

>  <energy_score>  (576) 
-19.430396385441327

>  <distance_score>  (576) 
1.6187784787144006

>  <path>  (576) 
/opt/xchem-fragalysis-2/maxwin/BulkDock/SCRATCH/505732/C1873-P26/C1873-P26.minimised.mol

>  <scratch_subdir>  (576) 
/opt/xchem-fragalysis-2/maxwin/BulkDock/SCRATCH/505732/C1873-P26

>  <fragmenstein_runtime>  (576) 
2.6503705978393555

>  <fragmenstein_outcome>  (576) 
too moved

>  <fragmenstein_mode>  (576) 
expansion

>  <fragmenstein_error>  (576) 


$$$$
C1873-P146
     RDKit          3D

 31 32  0  0  0  0  0  0  0  0999 V2000
   15.4168    1.2635   13.7096 C   0  0  0  0  0  0  0  0  0  0  0  0
   16.6175    1.0550   14.6323 C   0  0  0  0  0  0  0  0  0  0  0  0
   17.2282   -0.2658   14.5717 N   0  0  0  0  0  0  0  0  0  0  0  0
   17.5657   -0.9626   13.4417 C   0  0  0  0  0  0  0  0  0  0  0  0
   18.0842   -2.1397   13.7215 N   0  0  0  0  0  0  0  0  0  0  0  0
   18.1473   -2.1721   15.0938 C   0  0  0  0  0  0  0  0  0  0  0  0
   17.6632   -1.0033   15.6545 C   0  0  0  0  0  0  0  0  0  0  0  0
   17.7780   -0.4578   16.8737 N   0  0  0  0  0  0  0  0  0  0  0  0
   17.2563   -0.7953   17.9219 C   0  0  0  0  0  0  0  0  0  0  0  0
   16.0133   -1.7583   18.1999 N   0  0  0  0  0  0  0  0  0  0  0  0
   15.1364   -2.3962   17.3106 C   0  0  0  0  0  0  0  0  0  0  0  0
   14.6892   -3.6639   17.7159 C   0  0  0  0  0  0  0  0  0  0  0  0
   13.5135   -4.2181   17.2070 C   0  0  0  0  0  0  0  0  0  0  0  0
   12.7801   -3.5453   16.2379 C   0  0  0  0  0  0  0  0  0  0  0  0
   13.2634   -2.3539   15.7239 C   0  0  0  0  0  0  0  0  0  0  0  0
   14.4138   -1.7807   16.2792 C   0  0  0  0  0  0  0  0  0  0  0  0
   14.6820   -0.4961   15.9375 O   0  0  0  0  0  0  0  0  0  0  0  0
   15.7578    1.3968   12.6766 H   0  0  0  0  0  0  0  0  0  0  0  0
   14.7244    0.4191   13.7022 H   0  0  0  0  0  0  0  0  0  0  0  0
   14.8726    2.1692   13.9943 H   0  0  0  0  0  0  0  0  0  0  0  0
   17.4094    1.7678   14.3729 H   0  0  0  0  0  0  0  0  0  0  0  0
   16.3303    1.2652   15.6668 H   0  0  0  0  0  0  0  0  0  0  0  0
   17.3920   -0.5765   12.4459 H   0  0  0  0  0  0  0  0  0  0  0  0
   18.6073   -2.9994   15.6155 H   0  0  0  0  0  0  0  0  0  0  0  0
   17.5293   -0.4072   18.9186 H   0  0  0  0  0  0  0  0  0  0  0  0
   15.9000   -1.8830   19.1965 H   0  0  0  0  0  0  0  0  0  0  0  0
   15.2056   -4.1943   18.5136 H   0  0  0  0  0  0  0  0  0  0  0  0
   13.1613   -5.1695   17.5887 H   0  0  0  0  0  0  0  0  0  0  0  0
   11.8437   -3.9573   15.8723 H   0  0  0  0  0  0  0  0  0  0  0  0
   12.7057   -1.8414   14.9453 H   0  0  0  0  0  0  0  0  0  0  0  0
   13.8689   -0.0377   15.6647 H   0  0  0  0  0  0  0  0  0  0  0  0
  1  2  1  0
  2  3  1  0
  3  4  1  0
  4  5  2  0
  5  6  1  0
  6  7  2  0
  7  8  1  0
  8  9  2  3
  9 10  1  0
 10 11  1  0
 11 12  2  0
 12 13  1  0
 13 14  2  0
 14 15  1  0
 15 16  2  0
 16 17  1  0
  7  3  1  0
 16 11  1  0
  1 18  1  0
  1 19  1  0
  1 20  1  0
  2 21  1  0
  2 22  1  0
  4 23  1  0
  6 24  1  0
  9 25  1  0
 10 26  1  0
 12 27  1  0
 13 28  1  0
 14 29  1  0
 15 30  1  0
 17 31  1  0
M  END
>  <Energy>  (577) 
64.146666723326334

>  <compound_id>  (577) 
1873

>  <target_id>  (577) 
1

>  <reference_id>  (577) 
146

>  <inspiration_ids>  (577) 
[26, 146]

>  <energy_score>  (577) 
14.281662749416057

>  <distance_score>  (577) 
1.7090906713277685

>  <path>  (577) 
/opt/xchem-fragalysis-2/maxwin/BulkDock/SCRATCH/505732/C1873-P146/C1873-P146.minimised.mol

>  <scratch_subdir>  (577) 
/opt/xchem-fragalysis-2/maxwin/BulkDock/SCRATCH/505732/C1873-P146

>  <fragmenstein_runtime>  (577) 
3.3954927921295166

>  <fragmenstein_outcome>  (577) 
too moved

>  <fragmenstein_mode>  (577) 
expansion

>  <fragmenstein_error>  (577) 


$$$$
C1877-P26
     RDKit          3D

 35 37  0  0  0  0  0  0  0  0999 V2000
   15.9318   -3.1473   20.4340 C   0  0  0  0  0  0  0  0  0  0  0  0
   15.0575   -1.9105   20.5189 C   0  0  0  0  0  0  0  0  0  0  0  0
   15.7810   -0.6793   19.9983 C   0  0  0  0  0  0  0  0  0  0  0  0
   15.0689    0.1601   18.8726 C   0  0  0  0  0  0  0  0  0  0  0  0
   14.9903   -0.2045   17.5290 N   0  0  0  0  0  0  0  0  0  0  0  0
   14.0320   -1.1021   16.9766 C   0  0  0  0  0  0  0  0  0  0  0  0
   14.0554   -2.4704   17.2504 C   0  0  0  0  0  0  0  0  0  0  0  0
   13.1142   -3.3395   16.6815 C   0  0  0  0  0  0  0  0  0  0  0  0
   12.1511   -2.8578   15.7975 C   0  0  0  0  0  0  0  0  0  0  0  0
   12.1270   -1.5060   15.4782 C   0  0  0  0  0  0  0  0  0  0  0  0
   13.0454   -0.6441   16.0783 C   0  0  0  0  0  0  0  0  0  0  0  0
   12.9392    0.6822   15.7535 O   0  0  0  0  0  0  0  0  0  0  0  0
   14.7341    1.3801   19.2649 N   0  0  0  0  0  0  0  0  0  0  0  0
   15.2208    1.5075   20.5266 C   0  0  0  0  0  0  0  0  0  0  0  0
   15.4374    2.4438   21.5078 C   0  0  0  0  0  0  0  0  0  0  0  0
   15.0380    3.8651   21.5145 C   0  0  0  0  0  0  0  0  0  0  0  0
   16.1785    1.7228   22.4956 C   0  0  0  0  0  0  0  0  0  0  0  0
   16.3844    0.4362   22.1704 N   0  0  0  0  0  0  0  0  0  0  0  0
   15.7870    0.3686   20.9874 N   0  0  0  0  0  0  0  0  0  0  0  0
   15.3614   -4.0362   20.7216 H   0  0  0  0  0  0  0  0  0  0  0  0
   16.7850   -3.0620   21.1155 H   0  0  0  0  0  0  0  0  0  0  0  0
   16.3261   -3.3059   19.4267 H   0  0  0  0  0  0  0  0  0  0  0  0
   14.7506   -1.7913   21.5658 H   0  0  0  0  0  0  0  0  0  0  0  0
   14.1367   -2.0873   19.9602 H   0  0  0  0  0  0  0  0  0  0  0  0
   16.8180   -0.8630   19.6970 H   0  0  0  0  0  0  0  0  0  0  0  0
   14.9309    0.6509   16.9759 H   0  0  0  0  0  0  0  0  0  0  0  0
   14.8293   -2.8939   17.8761 H   0  0  0  0  0  0  0  0  0  0  0  0
   13.1445   -4.4019   16.9104 H   0  0  0  0  0  0  0  0  0  0  0  0
   11.4314   -3.5357   15.3452 H   0  0  0  0  0  0  0  0  0  0  0  0
   11.3933   -1.1243   14.7715 H   0  0  0  0  0  0  0  0  0  0  0  0
   13.0200    1.1934   16.5809 H   0  0  0  0  0  0  0  0  0  0  0  0
   15.1535    4.3027   22.5112 H   0  0  0  0  0  0  0  0  0  0  0  0
   13.9897    3.9747   21.2182 H   0  0  0  0  0  0  0  0  0  0  0  0
   15.6556    4.4390   20.8164 H   0  0  0  0  0  0  0  0  0  0  0  0
   16.5665    2.0909   23.4370 H   0  0  0  0  0  0  0  0  0  0  0  0
  1  2  1  0
  2  3  1  0
  3  4  1  0
  4  5  1  0
  5  6  1  0
  6  7  2  0
  7  8  1  0
  8  9  2  0
  9 10  1  0
 10 11  2  0
 11 12  1  0
  4 13  2  0
 13 14  1  0
 14 15  2  0
 15 16  1  0
 15 17  1  0
 17 18  2  0
 18 19  1  0
 19  3  1  0
 11  6  1  0
 19 14  1  0
  1 20  1  0
  1 21  1  0
  1 22  1  0
  2 23  1  0
  2 24  1  0
  3 25  1  0
  5 26  1  0
  7 27  1  0
  8 28  1  0
  9 29  1  0
 10 30  1  0
 12 31  1  0
 16 32  1  0
 16 33  1  0
 16 34  1  0
 17 35  1  0
M  END
>  <Energy>  (578) 
55.402076147956286

>  <compound_id>  (578) 
1877

>  <target_id>  (578) 
1

>  <reference_id>  (578) 
26

>  <inspiration_ids>  (578) 
[26, 184]

>  <energy_score>  (578) 
-24.267914448750957

>  <distance_score>  (578) 
1.6715225071194886

>  <path>  (578) 
/opt/xchem-fragalysis-2/maxwin/BulkDock/SCRATCH/505732/C1877-P26/C1877-P26.minimised.mol

>  <scratch_subdir>  (578) 
/opt/xchem-fragalysis-2/maxwin/BulkDock/SCRATCH/505732/C1877-P26

>  <fragmenstein_runtime>  (578) 
2.6930296421051025

>  <fragmenstein_outcome>  (578) 
too moved

>  <fragmenstein_mode>  (578) 
expansion

>  <fragmenstein_error>  (578) 


$$$$
C1877-P184
     RDKit          3D

 35 37  0  0  0  0  0  0  0  0999 V2000
   15.8530   -3.0171   20.6821 C   0  0  0  0  0  0  0  0  0  0  0  0
   14.9778   -1.7789   20.6081 C   0  0  0  0  0  0  0  0  0  0  0  0
   15.7091   -0.6145   19.9531 C   0  0  0  0  0  0  0  0  0  0  0  0
   14.9024    0.3228   18.9789 C   0  0  0  0  0  0  0  0  0  0  0  0
   14.5418    0.0754   17.6586 N   0  0  0  0  0  0  0  0  0  0  0  0
   13.8627   -1.0138   17.0587 C   0  0  0  0  0  0  0  0  0  0  0  0
   14.0184   -2.3455   17.4199 C   0  0  0  0  0  0  0  0  0  0  0  0
   13.2014   -3.3420   16.8698 C   0  0  0  0  0  0  0  0  0  0  0  0
   12.2724   -3.0340   15.8770 C   0  0  0  0  0  0  0  0  0  0  0  0
   12.1764   -1.7316   15.4069 C   0  0  0  0  0  0  0  0  0  0  0  0
   12.9716   -0.7439   15.9908 C   0  0  0  0  0  0  0  0  0  0  0  0
   12.8765    0.5506   15.5402 O   0  0  0  0  0  0  0  0  0  0  0  0
   14.7043    1.5375   19.4816 N   0  0  0  0  0  0  0  0  0  0  0  0
   15.3830    1.5747   20.6544 C   0  0  0  0  0  0  0  0  0  0  0  0
   15.7557    2.4308   21.6614 C   0  0  0  0  0  0  0  0  0  0  0  0
   15.4112    3.8570   21.8216 C   0  0  0  0  0  0  0  0  0  0  0  0
   16.5732    1.6137   22.5034 C   0  0  0  0  0  0  0  0  0  0  0  0
   16.6790    0.3462   22.0712 N   0  0  0  0  0  0  0  0  0  0  0  0
   15.9798    0.3976   20.9452 N   0  0  0  0  0  0  0  0  0  0  0  0
   15.2899   -3.8531   21.1093 H   0  0  0  0  0  0  0  0  0  0  0  0
   16.7239   -2.8381   21.3214 H   0  0  0  0  0  0  0  0  0  0  0  0
   16.2164   -3.3230   19.6970 H   0  0  0  0  0  0  0  0  0  0  0  0
   14.6467   -1.5349   21.6260 H   0  0  0  0  0  0  0  0  0  0  0  0
   14.0660   -2.0266   20.0679 H   0  0  0  0  0  0  0  0  0  0  0  0
   16.6540   -0.8877   19.4722 H   0  0  0  0  0  0  0  0  0  0  0  0
   14.1674    0.9314   17.2395 H   0  0  0  0  0  0  0  0  0  0  0  0
   14.7685   -2.6478   18.1341 H   0  0  0  0  0  0  0  0  0  0  0  0
   13.2970   -4.3676   17.2228 H   0  0  0  0  0  0  0  0  0  0  0  0
   11.6395   -3.8127   15.4580 H   0  0  0  0  0  0  0  0  0  0  0  0
   11.4737   -1.5022   14.6108 H   0  0  0  0  0  0  0  0  0  0  0  0
   12.3228    0.5606   14.7398 H   0  0  0  0  0  0  0  0  0  0  0  0
   15.7092    4.2274   22.8076 H   0  0  0  0  0  0  0  0  0  0  0  0
   14.3320    4.0087   21.7167 H   0  0  0  0  0  0  0  0  0  0  0  0
   15.9196    4.4609   21.0634 H   0  0  0  0  0  0  0  0  0  0  0  0
   17.0778    1.8958   23.4190 H   0  0  0  0  0  0  0  0  0  0  0  0
  1  2  1  0
  2  3  1  0
  3  4  1  0
  4  5  1  0
  5  6  1  0
  6  7  2  0
  7  8  1  0
  8  9  2  0
  9 10  1  0
 10 11  2  0
 11 12  1  0
  4 13  2  0
 13 14  1  0
 14 15  2  0
 15 16  1  0
 15 17  1  0
 17 18  2  0
 18 19  1  0
 19  3  1  0
 11  6  1  0
 19 14  1  0
  1 20  1  0
  1 21  1  0
  1 22  1  0
  2 23  1  0
  2 24  1  0
  3 25  1  0
  5 26  1  0
  7 27  1  0
  8 28  1  0
  9 29  1  0
 10 30  1  0
 12 31  1  0
 16 32  1  0
 16 33  1  0
 16 34  1  0
 17 35  1  0
M  END
>  <Energy>  (579) 
51.927365203877635

>  <compound_id>  (579) 
1877

>  <target_id>  (579) 
1

>  <reference_id>  (579) 
184

>  <inspiration_ids>  (579) 
[26, 184]

>  <energy_score>  (579) 
-27.742625392830575

>  <distance_score>  (579) 
1.6268911033123186

>  <path>  (579) 
/opt/xchem-fragalysis-2/maxwin/BulkDock/SCRATCH/505732/C1877-P184/C1877-P184.minimised.mol

>  <scratch_subdir>  (579) 
/opt/xchem-fragalysis-2/maxwin/BulkDock/SCRATCH/505732/C1877-P184

>  <fragmenstein_runtime>  (579) 
3.261601209640503

>  <fragmenstein_outcome>  (579) 
too moved

>  <fragmenstein_mode>  (579) 
expansion

>  <fragmenstein_error>  (579) 


$$$$
C1881-P27
     RDKit          3D

 45 46  0  0  0  0  0  0  0  0999 V2000
   12.4150    3.0135   15.9858 C   0  0  0  0  0  0  0  0  0  0  0  0
   12.3032    1.5898   15.4606 C   0  0  0  0  0  0  0  0  0  0  0  0
   10.8586    1.2358   15.1174 C   0  0  0  0  0  0  0  0  0  0  0  0
   10.6607   -0.1143   14.4100 C   0  0  0  0  0  0  0  0  0  0  0  0
   10.7489   -1.3600   15.2966 C   0  0  0  0  0  0  0  0  0  0  0  0
    9.8347   -1.1620   16.2988 F   0  0  0  0  0  0  0  0  0  0  0  0
   10.3189   -2.4710   14.6539 F   0  0  0  0  0  0  0  0  0  0  0  0
   12.1371   -1.6359   15.8167 C   0  0  0  0  0  0  0  0  0  0  0  0
   12.4145   -1.8233   17.0686 N   0  0  0  0  0  0  0  0  0  0  0  0
   13.8632   -2.1320   17.2455 C   0  0  0  0  0  0  0  0  0  0  0  0
   14.3994   -1.1432   18.3096 C   0  0  0  0  0  0  0  0  0  0  0  0
   15.8855   -0.8055   18.2930 C   0  0  0  0  0  0  0  0  0  0  0  0
   13.9031   -3.5382   17.6400 N   0  0  0  0  0  0  0  0  0  0  0  0
   15.0493   -4.0933   18.2195 C   0  0  0  0  0  0  0  0  0  0  0  0
   16.2216   -4.2996   17.4943 C   0  0  0  0  0  0  0  0  0  0  0  0
   17.3332   -4.8907   18.1024 C   0  0  0  0  0  0  0  0  0  0  0  0
   17.2844   -5.2758   19.4435 C   0  0  0  0  0  0  0  0  0  0  0  0
   16.1230   -5.0746   20.1862 C   0  0  0  0  0  0  0  0  0  0  0  0
   15.0201   -4.4933   19.5691 C   0  0  0  0  0  0  0  0  0  0  0  0
   13.8527   -4.3023   20.2616 O   0  0  0  0  0  0  0  0  0  0  0  0
   14.4060   -1.8696   15.8410 C   0  0  0  0  0  0  0  0  0  0  0  0
   15.5735   -1.7237   15.5126 O   0  0  0  0  0  0  0  0  0  0  0  0
   13.2807   -1.7258   14.8777 C   0  0  0  0  0  0  0  0  0  0  0  0
   12.0828    3.7368   15.2342 H   0  0  0  0  0  0  0  0  0  0  0  0
   13.4544    3.2425   16.2410 H   0  0  0  0  0  0  0  0  0  0  0  0
   11.8063    3.1480   16.8845 H   0  0  0  0  0  0  0  0  0  0  0  0
   12.6932    0.9142   16.2252 H   0  0  0  0  0  0  0  0  0  0  0  0
   12.9349    1.4919   14.5712 H   0  0  0  0  0  0  0  0  0  0  0  0
   10.2386    1.2763   16.0208 H   0  0  0  0  0  0  0  0  0  0  0  0
   10.4710    2.0140   14.4468 H   0  0  0  0  0  0  0  0  0  0  0  0
   11.3219   -0.1925   13.5408 H   0  0  0  0  0  0  0  0  0  0  0  0
    9.6375   -0.0756   14.0209 H   0  0  0  0  0  0  0  0  0  0  0  0
   13.8685   -0.1865   18.2107 H   0  0  0  0  0  0  0  0  0  0  0  0
   14.1596   -1.5151   19.3130 H   0  0  0  0  0  0  0  0  0  0  0  0
   16.5204   -1.6904   18.3394 H   0  0  0  0  0  0  0  0  0  0  0  0
   16.1540   -0.2232   17.4072 H   0  0  0  0  0  0  0  0  0  0  0  0
   16.1280   -0.1852   19.1630 H   0  0  0  0  0  0  0  0  0  0  0  0
   13.1433   -3.6634   18.3230 H   0  0  0  0  0  0  0  0  0  0  0  0
   16.2780   -4.0251   16.4446 H   0  0  0  0  0  0  0  0  0  0  0  0
   18.2394   -5.0516   17.5236 H   0  0  0  0  0  0  0  0  0  0  0  0
   18.1537   -5.7364   19.9059 H   0  0  0  0  0  0  0  0  0  0  0  0
   16.0892   -5.3853   21.2249 H   0  0  0  0  0  0  0  0  0  0  0  0
   14.0400   -4.3393   21.2141 H   0  0  0  0  0  0  0  0  0  0  0  0
   13.4010   -0.8099   14.3006 H   0  0  0  0  0  0  0  0  0  0  0  0
   13.1655   -2.5869   14.2281 H   0  0  0  0  0  0  0  0  0  0  0  0
  1  2  1  0
  2  3  1  0
  3  4  1  0
  4  5  1  0
  5  6  1  0
  5  7  1  0
  5  8  1  0
  8  9  2  0
  9 10  1  0
 10 11  1  0
 11 12  1  0
 10 13  1  0
 13 14  1  0
 14 15  2  0
 15 16  1  0
 16 17  2  0
 17 18  1  0
 18 19  2  0
 19 20  1  0
 10 21  1  0
 21 22  2  0
 21 23  1  0
 23  8  1  0
 19 14  1  0
  1 24  1  0
  1 25  1  0
  1 26  1  0
  2 27  1  0
  2 28  1  0
  3 29  1  0
  3 30  1  0
  4 31  1  0
  4 32  1  0
 11 33  1  0
 11 34  1  0
 12 35  1  0
 12 36  1  0
 12 37  1  0
 13 38  1  0
 15 39  1  0
 16 40  1  0
 17 41  1  0
 18 42  1  0
 20 43  1  0
 23 44  1  0
 23 45  1  0
M  END
>  <Energy>  (580) 
72.23948478776218

>  <compound_id>  (580) 
1881

>  <target_id>  (580) 
1

>  <reference_id>  (580) 
27

>  <inspiration_ids>  (580) 
[27, 6]

>  <energy_score>  (580) 
-37.88597259846972

>  <distance_score>  (580) 
1.2454426677126063

>  <path>  (580) 
/opt/xchem-fragalysis-2/maxwin/BulkDock/SCRATCH/505732/C1881-P27/C1881-P27.minimised.mol

>  <scratch_subdir>  (580) 
/opt/xchem-fragalysis-2/maxwin/BulkDock/SCRATCH/505732/C1881-P27

>  <fragmenstein_runtime>  (580) 
4.292356252670288

>  <fragmenstein_outcome>  (580) 
too moved

>  <fragmenstein_mode>  (580) 
expansion

>  <fragmenstein_error>  (580) 


$$$$
C1881-P6
     RDKit          3D

 45 46  0  0  0  0  0  0  0  0999 V2000
   10.9698    3.1115   14.4590 C   0  0  0  0  0  0  0  0  0  0  0  0
   10.6073    1.8427   15.2131 C   0  0  0  0  0  0  0  0  0  0  0  0
   11.0289    0.5903   14.4424 C   0  0  0  0  0  0  0  0  0  0  0  0
   10.4957   -0.6827   15.1081 C   0  0  0  0  0  0  0  0  0  0  0  0
   11.3585   -1.9222   14.8521 C   0  0  0  0  0  0  0  0  0  0  0  0
   11.6703   -2.0524   13.5398 F   0  0  0  0  0  0  0  0  0  0  0  0
   10.6617   -3.0326   15.2042 F   0  0  0  0  0  0  0  0  0  0  0  0
   12.6239   -1.8123   15.6640 C   0  0  0  0  0  0  0  0  0  0  0  0
   12.6687   -1.7311   16.9614 N   0  0  0  0  0  0  0  0  0  0  0  0
   14.0991   -1.6665   17.4076 C   0  0  0  0  0  0  0  0  0  0  0  0
   14.3435   -0.3277   18.1454 C   0  0  0  0  0  0  0  0  0  0  0  0
   15.7236   -0.1525   18.7749 C   0  0  0  0  0  0  0  0  0  0  0  0
   14.2549   -2.8062   18.2852 N   0  0  0  0  0  0  0  0  0  0  0  0
   15.3181   -3.5701   18.6958 C   0  0  0  0  0  0  0  0  0  0  0  0
   16.5604   -3.6361   18.0731 C   0  0  0  0  0  0  0  0  0  0  0  0
   17.5645   -4.4989   18.5387 C   0  0  0  0  0  0  0  0  0  0  0  0
   17.3585   -5.2864   19.6683 C   0  0  0  0  0  0  0  0  0  0  0  0
   16.1499   -5.2047   20.3448 C   0  0  0  0  0  0  0  0  0  0  0  0
   15.1619   -4.3508   19.8628 C   0  0  0  0  0  0  0  0  0  0  0  0
   13.9788   -4.3155   20.5586 O   0  0  0  0  0  0  0  0  0  0  0  0
   14.8547   -1.6037   16.0898 C   0  0  0  0  0  0  0  0  0  0  0  0
   16.0403   -1.3618   15.9249 O   0  0  0  0  0  0  0  0  0  0  0  0
   13.9165   -1.6877   14.9527 C   0  0  0  0  0  0  0  0  0  0  0  0
   10.4639    3.1507   13.4894 H   0  0  0  0  0  0  0  0  0  0  0  0
   10.6698    3.9929   15.0344 H   0  0  0  0  0  0  0  0  0  0  0  0
   12.0492    3.1697   14.2860 H   0  0  0  0  0  0  0  0  0  0  0  0
    9.5312    1.8280   15.4125 H   0  0  0  0  0  0  0  0  0  0  0  0
   11.1081    1.8556   16.1881 H   0  0  0  0  0  0  0  0  0  0  0  0
   12.1211    0.5796   14.3844 H   0  0  0  0  0  0  0  0  0  0  0  0
   10.6596    0.6348   13.4108 H   0  0  0  0  0  0  0  0  0  0  0  0
    9.4666   -0.8616   14.7794 H   0  0  0  0  0  0  0  0  0  0  0  0
   10.4153   -0.5219   16.1870 H   0  0  0  0  0  0  0  0  0  0  0  0
   14.1726    0.5075   17.4527 H   0  0  0  0  0  0  0  0  0  0  0  0
   13.6304   -0.1865   18.9552 H   0  0  0  0  0  0  0  0  0  0  0  0
   15.8956   -0.8822   19.5709 H   0  0  0  0  0  0  0  0  0  0  0  0
   15.7953    0.8421   19.2284 H   0  0  0  0  0  0  0  0  0  0  0  0
   16.5309   -0.2345   18.0443 H   0  0  0  0  0  0  0  0  0  0  0  0
   13.3611   -3.2858   18.3901 H   0  0  0  0  0  0  0  0  0  0  0  0
   16.7936   -3.0563   17.1912 H   0  0  0  0  0  0  0  0  0  0  0  0
   18.5163   -4.5455   18.0143 H   0  0  0  0  0  0  0  0  0  0  0  0
   18.1404   -5.9515   20.0237 H   0  0  0  0  0  0  0  0  0  0  0  0
   15.9725   -5.7996   21.2350 H   0  0  0  0  0  0  0  0  0  0  0  0
   13.6198   -3.4179   20.4192 H   0  0  0  0  0  0  0  0  0  0  0  0
   13.9430   -0.7600   14.3782 H   0  0  0  0  0  0  0  0  0  0  0  0
   14.1377   -2.5371   14.3239 H   0  0  0  0  0  0  0  0  0  0  0  0
  1  2  1  0
  2  3  1  0
  3  4  1  0
  4  5  1  0
  5  6  1  0
  5  7  1  0
  5  8  1  0
  8  9  2  0
  9 10  1  0
 10 11  1  0
 11 12  1  0
 10 13  1  0
 13 14  1  0
 14 15  2  0
 15 16  1  0
 16 17  2  0
 17 18  1  0
 18 19  2  0
 19 20  1  0
 10 21  1  0
 21 22  2  0
 21 23  1  0
 23  8  1  0
 19 14  1  0
  1 24  1  0
  1 25  1  0
  1 26  1  0
  2 27  1  0
  2 28  1  0
  3 29  1  0
  3 30  1  0
  4 31  1  0
  4 32  1  0
 11 33  1  0
 11 34  1  0
 12 35  1  0
 12 36  1  0
 12 37  1  0
 13 38  1  0
 15 39  1  0
 16 40  1  0
 17 41  1  0
 18 42  1  0
 20 43  1  0
 23 44  1  0
 23 45  1  0
M  END
>  <Energy>  (581) 
72.237372649518704

>  <compound_id>  (581) 
1881

>  <target_id>  (581) 
1

>  <reference_id>  (581) 
6

>  <inspiration_ids>  (581) 
[27, 6]

>  <energy_score>  (581) 
-37.88808473671486

>  <distance_score>  (581) 
1.334919000163096

>  <path>  (581) 
/opt/xchem-fragalysis-2/maxwin/BulkDock/SCRATCH/505732/C1881-P6/C1881-P6.minimised.mol

>  <scratch_subdir>  (581) 
/opt/xchem-fragalysis-2/maxwin/BulkDock/SCRATCH/505732/C1881-P6

>  <fragmenstein_runtime>  (581) 
3.3079757690429688

>  <fragmenstein_outcome>  (581) 
too moved

>  <fragmenstein_mode>  (581) 
expansion

>  <fragmenstein_error>  (581) 


$$$$
C1883-P27
     RDKit          3D

 29 31  0  0  0  0  0  0  0  0999 V2000
   14.7175   -3.7284   19.5225 O   0  0  0  0  0  0  0  0  0  0  0  0
   14.8796   -2.5714   19.3772 C   0  0  0  0  0  0  0  0  0  0  0  0
   14.4703   -1.6532   18.2281 N   0  0  0  0  0  0  0  0  0  0  0  0
   13.6402   -1.9372   16.9744 C   0  0  0  0  0  0  0  0  0  0  0  0
   12.9872   -3.1823   16.9318 C   0  0  0  0  0  0  0  0  0  0  0  0
   12.0093   -3.4528   15.9769 C   0  0  0  0  0  0  0  0  0  0  0  0
   11.6610   -2.5067   15.0241 C   0  0  0  0  0  0  0  0  0  0  0  0
   12.2401   -1.2485   15.0647 C   0  0  0  0  0  0  0  0  0  0  0  0
   13.1727   -0.9522   16.0616 C   0  0  0  0  0  0  0  0  0  0  0  0
   13.5849    0.3425   16.1676 O   0  0  0  0  0  0  0  0  0  0  0  0
   15.5438   -1.5743   17.1893 C   0  0  0  0  0  0  0  0  0  0  0  0
   16.2226   -2.6484   16.7090 C   0  0  0  0  0  0  0  0  0  0  0  0
   17.3700   -2.3457   15.8199 C   0  0  0  0  0  0  0  0  0  0  0  0
   17.8685   -1.1778   15.5669 N   0  0  0  0  0  0  0  0  0  0  0  0
   17.2769   -0.1250   16.1998 C   0  0  0  0  0  0  0  0  0  0  0  0
   17.6475    1.1404   16.2008 N   0  0  0  0  0  0  0  0  0  0  0  0
   16.7834    1.7899   17.0395 C   0  0  0  0  0  0  0  0  0  0  0  0
   15.8621    0.9192   17.5648 C   0  0  0  0  0  0  0  0  0  0  0  0
   16.1450   -0.3056   16.9972 N   0  0  0  0  0  0  0  0  0  0  0  0
   15.3917   -1.9103   20.1023 H   0  0  0  0  0  0  0  0  0  0  0  0
   13.1856   -3.9462   17.6800 H   0  0  0  0  0  0  0  0  0  0  0  0
   11.4988   -4.4082   16.0094 H   0  0  0  0  0  0  0  0  0  0  0  0
   10.9073   -2.7398   14.2780 H   0  0  0  0  0  0  0  0  0  0  0  0
   11.9103   -0.5025   14.3468 H   0  0  0  0  0  0  0  0  0  0  0  0
   13.2665    0.8561   15.4061 H   0  0  0  0  0  0  0  0  0  0  0  0
   15.9714   -3.6820   16.9035 H   0  0  0  0  0  0  0  0  0  0  0  0
   17.8236   -3.2267   15.3351 H   0  0  0  0  0  0  0  0  0  0  0  0
   16.8752    2.8517   17.2276 H   0  0  0  0  0  0  0  0  0  0  0  0
   15.0426    1.0576   18.2549 H   0  0  0  0  0  0  0  0  0  0  0  0
  1  2  2  0
  2  3  1  0
  3  4  1  0
  4  5  2  0
  5  6  1  0
  6  7  2  0
  7  8  1  0
  8  9  2  0
  9 10  1  0
  3 11  1  0
 11 12  2  0
 12 13  1  0
 13 14  2  0
 14 15  1  0
 15 16  2  0
 16 17  1  0
 17 18  2  0
 18 19  1  0
  9  4  1  0
 19 11  1  0
 19 15  1  0
  2 20  1  0
  5 21  1  0
  6 22  1  0
  7 23  1  0
  8 24  1  0
 10 25  1  0
 12 26  1  0
 13 27  1  0
 17 28  1  0
 18 29  1  0
M  END
>  <Energy>  (582) 
158.08264015027407

>  <compound_id>  (582) 
1883

>  <target_id>  (582) 
1

>  <reference_id>  (582) 
27

>  <inspiration_ids>  (582) 
[27, 10]

>  <energy_score>  (582) 
45.815770962647605

>  <distance_score>  (582) 
1.4059291656394362

>  <path>  (582) 
/opt/xchem-fragalysis-2/maxwin/BulkDock/SCRATCH/505732/C1883-P27/C1883-P27.minimised.mol

>  <scratch_subdir>  (582) 
/opt/xchem-fragalysis-2/maxwin/BulkDock/SCRATCH/505732/C1883-P27

>  <fragmenstein_runtime>  (582) 
1.963477373123169

>  <fragmenstein_outcome>  (582) 
too moved

>  <fragmenstein_mode>  (582) 
expansion

>  <fragmenstein_error>  (582) 


$$$$
C1883-P10
     RDKit          3D

 29 31  0  0  0  0  0  0  0  0999 V2000
   14.9505   -3.7378   19.3947 O   0  0  0  0  0  0  0  0  0  0  0  0
   15.0960   -2.5800   19.2412 C   0  0  0  0  0  0  0  0  0  0  0  0
   14.6372   -1.6687   18.1053 N   0  0  0  0  0  0  0  0  0  0  0  0
   13.7647   -1.9644   16.8807 C   0  0  0  0  0  0  0  0  0  0  0  0
   13.1211   -3.2156   16.8640 C   0  0  0  0  0  0  0  0  0  0  0  0
   12.0903   -3.4866   15.9657 C   0  0  0  0  0  0  0  0  0  0  0  0
   11.6858   -2.5395   15.0359 C   0  0  0  0  0  0  0  0  0  0  0  0
   12.2630   -1.2799   15.0467 C   0  0  0  0  0  0  0  0  0  0  0  0
   13.2444   -0.9807   15.9954 C   0  0  0  0  0  0  0  0  0  0  0  0
   13.6407    0.3208   16.0907 O   0  0  0  0  0  0  0  0  0  0  0  0
   15.6697   -1.5821   17.0317 C   0  0  0  0  0  0  0  0  0  0  0  0
   16.3450   -2.6507   16.5356 C   0  0  0  0  0  0  0  0  0  0  0  0
   17.4578   -2.3380   15.6077 C   0  0  0  0  0  0  0  0  0  0  0  0
   17.9303   -1.1646   15.3297 N   0  0  0  0  0  0  0  0  0  0  0  0
   17.3464   -0.1157   15.9757 C   0  0  0  0  0  0  0  0  0  0  0  0
   17.6972    1.1552   15.9554 N   0  0  0  0  0  0  0  0  0  0  0  0
   16.8585    1.7966   16.8252 C   0  0  0  0  0  0  0  0  0  0  0  0
   15.9695    0.9163   17.3884 C   0  0  0  0  0  0  0  0  0  0  0  0
   16.2468   -0.3072   16.8137 N   0  0  0  0  0  0  0  0  0  0  0  0
   15.6273   -1.9124   19.9461 H   0  0  0  0  0  0  0  0  0  0  0  0
   13.3588   -3.9797   17.6007 H   0  0  0  0  0  0  0  0  0  0  0  0
   11.5778   -4.4404   16.0332 H   0  0  0  0  0  0  0  0  0  0  0  0
   10.8871   -2.7716   14.3375 H   0  0  0  0  0  0  0  0  0  0  0  0
   11.8861   -0.5327   14.3537 H   0  0  0  0  0  0  0  0  0  0  0  0
   13.3556    0.8029   15.2956 H   0  0  0  0  0  0  0  0  0  0  0  0
   16.1138   -3.6866   16.7437 H   0  0  0  0  0  0  0  0  0  0  0  0
   17.9077   -3.2158   15.1137 H   0  0  0  0  0  0  0  0  0  0  0  0
   16.9459    2.8600   17.0062 H   0  0  0  0  0  0  0  0  0  0  0  0
   15.1772    1.0444   18.1108 H   0  0  0  0  0  0  0  0  0  0  0  0
  1  2  2  0
  2  3  1  0
  3  4  1  0
  4  5  2  0
  5  6  1  0
  6  7  2  0
  7  8  1  0
  8  9  2  0
  9 10  1  0
  3 11  1  0
 11 12  2  0
 12 13  1  0
 13 14  2  0
 14 15  1  0
 15 16  2  0
 16 17  1  0
 17 18  2  0
 18 19  1  0
  9  4  1  0
 19 11  1  0
 19 15  1  0
  2 20  1  0
  5 21  1  0
  6 22  1  0
  7 23  1  0
  8 24  1  0
 10 25  1  0
 12 26  1  0
 13 27  1  0
 17 28  1  0
 18 29  1  0
M  END
>  <Energy>  (583) 
158.39163002052771

>  <compound_id>  (583) 
1883

>  <target_id>  (583) 
1

>  <reference_id>  (583) 
10

>  <inspiration_ids>  (583) 
[27, 10]

>  <energy_score>  (583) 
46.12476083290011

>  <distance_score>  (583) 
1.4310916515326555

>  <path>  (583) 
/opt/xchem-fragalysis-2/maxwin/BulkDock/SCRATCH/505732/C1883-P10/C1883-P10.minimised.mol

>  <scratch_subdir>  (583) 
/opt/xchem-fragalysis-2/maxwin/BulkDock/SCRATCH/505732/C1883-P10

>  <fragmenstein_runtime>  (583) 
1.6771044731140137

>  <fragmenstein_outcome>  (583) 
too moved

>  <fragmenstein_mode>  (583) 
expansion

>  <fragmenstein_error>  (583) 


$$$$
C1884-P27
     RDKit          3D

 44 46  0  0  0  0  0  0  0  0999 V2000
   15.3334   -1.8462   13.4704 C   0  0  0  0  0  0  0  0  0  0  0  0
   16.0418   -0.2485   13.7755 S   0  0  0  0  0  0  0  0  0  0  0  0
   15.6322    0.6327   12.6979 O   0  0  0  0  0  0  0  0  0  0  0  0
   17.4577   -0.4602   14.0236 O   0  0  0  0  0  0  0  0  0  0  0  0
   15.3446    0.3575   15.3036 C   0  0  0  0  0  0  0  0  0  0  0  0
   13.8168    0.3214   15.4880 C   0  0  0  0  0  0  0  0  0  0  0  0
   13.0795    1.0846   14.3841 C   0  0  0  0  0  0  0  0  0  0  0  0
   11.5770    0.9883   14.5565 C   0  0  0  0  0  0  0  0  0  0  0  0
   11.1898   -0.4618   14.3353 C   0  0  0  0  0  0  0  0  0  0  0  0
   11.9915   -1.4113   15.1840 C   0  0  0  0  0  0  0  0  0  0  0  0
   11.4908   -2.6936   15.3941 C   0  0  0  0  0  0  0  0  0  0  0  0
   12.1104   -3.5344   16.3080 C   0  0  0  0  0  0  0  0  0  0  0  0
   13.2459   -3.1281   17.0026 C   0  0  0  0  0  0  0  0  0  0  0  0
   13.6102   -3.8666   18.1452 N   0  0  0  0  0  0  0  0  0  0  0  0
   14.8989   -4.2120   18.6033 C   0  0  0  0  0  0  0  0  0  0  0  0
   16.0123   -4.2472   17.7565 C   0  0  0  0  0  0  0  0  0  0  0  0
   17.2491   -4.7022   18.2233 C   0  0  0  0  0  0  0  0  0  0  0  0
   17.3827   -5.1468   19.5382 C   0  0  0  0  0  0  0  0  0  0  0  0
   16.2763   -5.1593   20.3832 C   0  0  0  0  0  0  0  0  0  0  0  0
   15.0459   -4.7235   19.9038 C   0  0  0  0  0  0  0  0  0  0  0  0
   13.9685   -4.8586   20.7402 O   0  0  0  0  0  0  0  0  0  0  0  0
   13.8008   -1.8840   16.7170 C   0  0  0  0  0  0  0  0  0  0  0  0
   13.2132   -1.0352   15.7679 C   0  0  0  0  0  0  0  0  0  0  0  0
   15.8375   -2.2695   12.5983 H   0  0  0  0  0  0  0  0  0  0  0  0
   15.5116   -2.4825   14.3376 H   0  0  0  0  0  0  0  0  0  0  0  0
   14.2716   -1.7414   13.2506 H   0  0  0  0  0  0  0  0  0  0  0  0
   15.6828    1.4000   15.3666 H   0  0  0  0  0  0  0  0  0  0  0  0
   15.8606   -0.1792   16.1058 H   0  0  0  0  0  0  0  0  0  0  0  0
   13.6265    0.8871   16.4142 H   0  0  0  0  0  0  0  0  0  0  0  0
   13.3270    0.6980   13.3907 H   0  0  0  0  0  0  0  0  0  0  0  0
   13.3846    2.1378   14.3999 H   0  0  0  0  0  0  0  0  0  0  0  0
   11.2794    1.3282   15.5560 H   0  0  0  0  0  0  0  0  0  0  0  0
   11.0656    1.6252   13.8261 H   0  0  0  0  0  0  0  0  0  0  0  0
   11.3718   -0.7165   13.2887 H   0  0  0  0  0  0  0  0  0  0  0  0
   10.1229   -0.5682   14.5604 H   0  0  0  0  0  0  0  0  0  0  0  0
   10.5857   -3.0226   14.8877 H   0  0  0  0  0  0  0  0  0  0  0  0
   11.6701   -4.5035   16.5234 H   0  0  0  0  0  0  0  0  0  0  0  0
   13.0413   -3.5119   18.9170 H   0  0  0  0  0  0  0  0  0  0  0  0
   15.9284   -3.9380   16.7184 H   0  0  0  0  0  0  0  0  0  0  0  0
   18.1084   -4.7150   17.5570 H   0  0  0  0  0  0  0  0  0  0  0  0
   18.3454   -5.4996   19.8994 H   0  0  0  0  0  0  0  0  0  0  0  0
   16.3647   -5.5330   21.3992 H   0  0  0  0  0  0  0  0  0  0  0  0
   13.1630   -4.8780   20.1962 H   0  0  0  0  0  0  0  0  0  0  0  0
   14.6561   -1.5535   17.3018 H   0  0  0  0  0  0  0  0  0  0  0  0
  1  2  1  0
  2  3  2  0
  2  4  2  0
  2  5  1  0
  5  6  1  0
  6  7  1  0
  7  8  1  0
  8  9  1  0
  9 10  1  0
 10 11  2  0
 11 12  1  0
 12 13  2  0
 13 14  1  0
 14 15  1  0
 15 16  2  0
 16 17  1  0
 17 18  2  0
 18 19  1  0
 19 20  2  0
 20 21  1  0
 13 22  1  0
 22 23  2  0
 23  6  1  0
 23 10  1  0
 20 15  1  0
  1 24  1  0
  1 25  1  0
  1 26  1  0
  5 27  1  0
  5 28  1  0
  6 29  1  0
  7 30  1  0
  7 31  1  0
  8 32  1  0
  8 33  1  0
  9 34  1  0
  9 35  1  0
 11 36  1  0
 12 37  1  0
 14 38  1  0
 16 39  1  0
 17 40  1  0
 18 41  1  0
 19 42  1  0
 21 43  1  0
 22 44  1  0
M  END
>  <Energy>  (584) 
45.685086718186426

>  <compound_id>  (584) 
1884

>  <target_id>  (584) 
1

>  <reference_id>  (584) 
27

>  <inspiration_ids>  (584) 
[27, 12]

>  <energy_score>  (584) 
-39.020329965064604

>  <distance_score>  (584) 
2.1392346952887444

>  <path>  (584) 
/opt/xchem-fragalysis-2/maxwin/BulkDock/SCRATCH/505732/C1884-P27/C1884-P27.minimised.mol

>  <scratch_subdir>  (584) 
/opt/xchem-fragalysis-2/maxwin/BulkDock/SCRATCH/505732/C1884-P27

>  <fragmenstein_runtime>  (584) 
3.0803604125976562

>  <fragmenstein_outcome>  (584) 
too moved

>  <fragmenstein_mode>  (584) 
expansion

>  <fragmenstein_error>  (584) 


$$$$
C1884-P12
     RDKit          3D

 44 46  0  0  0  0  0  0  0  0999 V2000
   13.6343    1.6238   11.7089 C   0  0  0  0  0  0  0  0  0  0  0  0
   14.2891    1.8371   13.3477 S   0  0  0  0  0  0  0  0  0  0  0  0
   13.4326    2.7812   14.0394 O   0  0  0  0  0  0  0  0  0  0  0  0
   15.7058    2.1107   13.1945 O   0  0  0  0  0  0  0  0  0  0  0  0
   14.1296    0.2194   14.0959 C   0  0  0  0  0  0  0  0  0  0  0  0
   12.9380    0.0693   15.0535 C   0  0  0  0  0  0  0  0  0  0  0  0
   11.5920    0.2302   14.3243 C   0  0  0  0  0  0  0  0  0  0  0  0
   10.4844   -0.6000   14.9399 C   0  0  0  0  0  0  0  0  0  0  0  0
   10.9127   -2.0569   14.8048 C   0  0  0  0  0  0  0  0  0  0  0  0
   12.1067   -2.2645   15.6711 C   0  0  0  0  0  0  0  0  0  0  0  0
   12.2260   -3.4587   16.3684 C   0  0  0  0  0  0  0  0  0  0  0  0
   13.2122   -3.5829   17.3218 C   0  0  0  0  0  0  0  0  0  0  0  0
   14.1321   -2.5587   17.5330 C   0  0  0  0  0  0  0  0  0  0  0  0
   15.0044   -2.5937   18.6442 N   0  0  0  0  0  0  0  0  0  0  0  0
   15.7463   -3.7601   18.9682 C   0  0  0  0  0  0  0  0  0  0  0  0
   16.7762   -4.1966   18.1319 C   0  0  0  0  0  0  0  0  0  0  0  0
   17.5108   -5.3320   18.4699 C   0  0  0  0  0  0  0  0  0  0  0  0
   17.2102   -6.0373   19.6380 C   0  0  0  0  0  0  0  0  0  0  0  0
   16.1654   -5.6236   20.4674 C   0  0  0  0  0  0  0  0  0  0  0  0
   15.4335   -4.4957   20.1201 C   0  0  0  0  0  0  0  0  0  0  0  0
   14.3557   -4.0919   20.8602 O   0  0  0  0  0  0  0  0  0  0  0  0
   14.0592   -1.3952   16.7715 C   0  0  0  0  0  0  0  0  0  0  0  0
   13.0528   -1.2377   15.8182 C   0  0  0  0  0  0  0  0  0  0  0  0
   14.1694    0.8102   11.2163 H   0  0  0  0  0  0  0  0  0  0  0  0
   13.7909    2.5549   11.1596 H   0  0  0  0  0  0  0  0  0  0  0  0
   12.5672    1.4107   11.7677 H   0  0  0  0  0  0  0  0  0  0  0  0
   15.0745    0.0639   14.6304 H   0  0  0  0  0  0  0  0  0  0  0  0
   14.1036   -0.5247   13.2919 H   0  0  0  0  0  0  0  0  0  0  0  0
   12.9811    0.8665   15.8093 H   0  0  0  0  0  0  0  0  0  0  0  0
   11.2935    1.2849   14.3229 H   0  0  0  0  0  0  0  0  0  0  0  0
   11.6931   -0.0560   13.2717 H   0  0  0  0  0  0  0  0  0  0  0  0
   10.3293   -0.3187   15.9883 H   0  0  0  0  0  0  0  0  0  0  0  0
    9.5383   -0.4000   14.4311 H   0  0  0  0  0  0  0  0  0  0  0  0
   11.2279   -2.3224   13.7909 H   0  0  0  0  0  0  0  0  0  0  0  0
   10.0873   -2.7119   15.0860 H   0  0  0  0  0  0  0  0  0  0  0  0
   11.5041   -4.2593   16.2453 H   0  0  0  0  0  0  0  0  0  0  0  0
   13.2004   -4.4495   17.9679 H   0  0  0  0  0  0  0  0  0  0  0  0
   14.4252   -2.4122   19.4751 H   0  0  0  0  0  0  0  0  0  0  0  0
   17.0168   -3.6392   17.2308 H   0  0  0  0  0  0  0  0  0  0  0  0
   18.3200   -5.6668   17.8260 H   0  0  0  0  0  0  0  0  0  0  0  0
   17.7846   -6.9250   19.8930 H   0  0  0  0  0  0  0  0  0  0  0  0
   15.9302   -6.1994   21.3562 H   0  0  0  0  0  0  0  0  0  0  0  0
   14.3684   -4.5481   21.7178 H   0  0  0  0  0  0  0  0  0  0  0  0
   14.7655   -0.5928   16.9733 H   0  0  0  0  0  0  0  0  0  0  0  0
  1  2  1  0
  2  3  2  0
  2  4  2  0
  2  5  1  0
  5  6  1  0
  6  7  1  0
  7  8  1  0
  8  9  1  0
  9 10  1  0
 10 11  2  0
 11 12  1  0
 12 13  2  0
 13 14  1  0
 14 15  1  0
 15 16  2  0
 16 17  1  0
 17 18  2  0
 18 19  1  0
 19 20  2  0
 20 21  1  0
 13 22  1  0
 22 23  2  0
 23  6  1  0
 23 10  1  0
 20 15  1  0
  1 24  1  0
  1 25  1  0
  1 26  1  0
  5 27  1  0
  5 28  1  0
  6 29  1  0
  7 30  1  0
  7 31  1  0
  8 32  1  0
  8 33  1  0
  9 34  1  0
  9 35  1  0
 11 36  1  0
 12 37  1  0
 14 38  1  0
 16 39  1  0
 17 40  1  0
 18 41  1  0
 19 42  1  0
 21 43  1  0
 22 44  1  0
M  END
>  <Energy>  (585) 
50.128527099803989

>  <compound_id>  (585) 
1884

>  <target_id>  (585) 
1

>  <reference_id>  (585) 
12

>  <inspiration_ids>  (585) 
[27, 12]

>  <energy_score>  (585) 
-34.5768895834492

>  <distance_score>  (585) 
1.7663631620784768

>  <path>  (585) 
/opt/xchem-fragalysis-2/maxwin/BulkDock/SCRATCH/505732/C1884-P12/C1884-P12.minimised.mol

>  <scratch_subdir>  (585) 
/opt/xchem-fragalysis-2/maxwin/BulkDock/SCRATCH/505732/C1884-P12

>  <fragmenstein_runtime>  (585) 
2.9929027557373047

>  <fragmenstein_outcome>  (585) 
too moved

>  <fragmenstein_mode>  (585) 
expansion

>  <fragmenstein_error>  (585) 


$$$$
C1887-P27
     RDKit          3D

 51 52  0  0  0  0  0  0  0  0999 V2000
   15.2179   -1.4472   13.6195 C   0  0  0  0  0  0  0  0  0  0  0  0
   14.8314   -1.2709   15.0592 C   0  0  0  0  0  0  0  0  0  0  0  0
   15.7200   -1.2975   16.0622 C   0  0  0  0  0  0  0  0  0  0  0  0
   15.4853   -1.1873   17.4105 N   0  0  0  0  0  0  0  0  0  0  0  0
   16.3607   -0.6473   18.4550 C   0  0  0  0  0  0  0  0  0  0  0  0
   17.8015   -1.1557   18.2936 C   0  0  0  0  0  0  0  0  0  0  0  0
   16.3453    0.9014   18.3735 C   0  0  0  0  0  0  0  0  0  0  0  0
   15.0705    1.4895   18.6247 O   0  0  0  0  0  0  0  0  0  0  0  0
   15.8288   -1.1222   19.8395 C   0  0  0  0  0  0  0  0  0  0  0  0
   14.5176   -0.6187   20.1183 O   0  0  0  0  0  0  0  0  0  0  0  0
   13.4493   -0.9301   15.3381 C   0  0  0  0  0  0  0  0  0  0  0  0
   13.0332    0.3641   14.9582 C   0  0  0  0  0  0  0  0  0  0  0  0
   11.7085    0.7397   15.0714 C   0  0  0  0  0  0  0  0  0  0  0  0
   10.8062   -0.1998   15.5247 C   0  0  0  0  0  0  0  0  0  0  0  0
   11.2446   -1.4731   15.9176 C   0  0  0  0  0  0  0  0  0  0  0  0
   12.5793   -1.8529   15.9220 C   0  0  0  0  0  0  0  0  0  0  0  0
   13.0133   -3.2329   16.3965 C   0  0  0  0  0  0  0  0  0  0  0  0
   13.2504   -3.3415   17.8518 N   0  0  0  0  0  0  0  0  0  0  0  0
   14.3388   -4.1177   18.3291 C   0  0  0  0  0  0  0  0  0  0  0  0
   15.5223   -4.3435   17.6070 C   0  0  0  0  0  0  0  0  0  0  0  0
   16.6140   -5.0419   18.1497 C   0  0  0  0  0  0  0  0  0  0  0  0
   16.5625   -5.5218   19.4512 C   0  0  0  0  0  0  0  0  0  0  0  0
   15.4261   -5.2844   20.2130 C   0  0  0  0  0  0  0  0  0  0  0  0
   14.3494   -4.5801   19.6623 C   0  0  0  0  0  0  0  0  0  0  0  0
   13.2982   -4.3621   20.5115 O   0  0  0  0  0  0  0  0  0  0  0  0
   14.5782   -2.1925   13.1356 H   0  0  0  0  0  0  0  0  0  0  0  0
   16.2530   -1.7910   13.5179 H   0  0  0  0  0  0  0  0  0  0  0  0
   15.1258   -0.5058   13.0679 H   0  0  0  0  0  0  0  0  0  0  0  0
   16.7693   -1.4536   15.8248 H   0  0  0  0  0  0  0  0  0  0  0  0
   14.4967   -1.0692   17.6490 H   0  0  0  0  0  0  0  0  0  0  0  0
   17.8383   -2.2491   18.2556 H   0  0  0  0  0  0  0  0  0  0  0  0
   18.2674   -0.7756   17.3780 H   0  0  0  0  0  0  0  0  0  0  0  0
   18.4292   -0.8300   19.1310 H   0  0  0  0  0  0  0  0  0  0  0  0
   16.6726    1.2448   17.3859 H   0  0  0  0  0  0  0  0  0  0  0  0
   17.0394    1.3210   19.1105 H   0  0  0  0  0  0  0  0  0  0  0  0
   14.5693    0.8529   19.1781 H   0  0  0  0  0  0  0  0  0  0  0  0
   15.8012   -2.2110   19.8931 H   0  0  0  0  0  0  0  0  0  0  0  0
   16.4863   -0.7660   20.6405 H   0  0  0  0  0  0  0  0  0  0  0  0
   14.1817   -1.1277   20.8832 H   0  0  0  0  0  0  0  0  0  0  0  0
   13.7521    1.0742   14.5555 H   0  0  0  0  0  0  0  0  0  0  0  0
   11.3791    1.7223   14.7509 H   0  0  0  0  0  0  0  0  0  0  0  0
    9.7422    0.0266   15.5066 H   0  0  0  0  0  0  0  0  0  0  0  0
   10.4995   -2.2164   16.1364 H   0  0  0  0  0  0  0  0  0  0  0  0
   12.2212   -3.9470   16.1362 H   0  0  0  0  0  0  0  0  0  0  0  0
   13.8697   -3.5519   15.8138 H   0  0  0  0  0  0  0  0  0  0  0  0
   12.3891   -3.6775   18.2833 H   0  0  0  0  0  0  0  0  0  0  0  0
   15.6510   -3.9665   16.5989 H   0  0  0  0  0  0  0  0  0  0  0  0
   17.5060   -5.1939   17.5472 H   0  0  0  0  0  0  0  0  0  0  0  0
   17.4046   -6.0620   19.8737 H   0  0  0  0  0  0  0  0  0  0  0  0
   15.3750   -5.6293   21.2418 H   0  0  0  0  0  0  0  0  0  0  0  0
   12.7354   -3.6798   20.1053 H   0  0  0  0  0  0  0  0  0  0  0  0
  1  2  1  0
  2  3  2  3
  3  4  1  0
  4  5  1  0
  5  6  1  0
  5  7  1  0
  7  8  1  0
  5  9  1  0
  9 10  1  0
  2 11  1  0
 11 12  2  0
 12 13  1  0
 13 14  2  0
 14 15  1  0
 15 16  2  0
 16 17  1  0
 17 18  1  0
 18 19  1  0
 19 20  2  0
 20 21  1  0
 21 22  2  0
 22 23  1  0
 23 24  2  0
 24 25  1  0
 16 11  1  0
 24 19  1  0
  1 26  1  0
  1 27  1  0
  1 28  1  0
  3 29  1  0
  4 30  1  0
  6 31  1  0
  6 32  1  0
  6 33  1  0
  7 34  1  0
  7 35  1  0
  8 36  1  0
  9 37  1  0
  9 38  1  0
 10 39  1  0
 12 40  1  0
 13 41  1  0
 14 42  1  0
 15 43  1  0
 17 44  1  0
 17 45  1  0
 18 46  1  0
 20 47  1  0
 21 48  1  0
 22 49  1  0
 23 50  1  0
 25 51  1  0
M  END
>  <Energy>  (586) 
118.73565980783751

>  <compound_id>  (586) 
1887

>  <target_id>  (586) 
1

>  <reference_id>  (586) 
27

>  <inspiration_ids>  (586) 
[27, 23]

>  <energy_score>  (586) 
-78.09701010004392

>  <distance_score>  (586) 
1.6184044308547945

>  <path>  (586) 
/opt/xchem-fragalysis-2/maxwin/BulkDock/SCRATCH/505732/C1887-P27/C1887-P27.minimised.mol

>  <scratch_subdir>  (586) 
/opt/xchem-fragalysis-2/maxwin/BulkDock/SCRATCH/505732/C1887-P27

>  <fragmenstein_runtime>  (586) 
7.641206979751587

>  <fragmenstein_outcome>  (586) 
too moved

>  <fragmenstein_mode>  (586) 
expansion

>  <fragmenstein_error>  (586) 


$$$$
C1887-P23
     RDKit          3D

 51 52  0  0  0  0  0  0  0  0999 V2000
   14.1152   -1.4969   13.7175 C   0  0  0  0  0  0  0  0  0  0  0  0
   14.9268   -1.5272   14.9720 C   0  0  0  0  0  0  0  0  0  0  0  0
   16.0902   -2.1852   15.1519 C   0  0  0  0  0  0  0  0  0  0  0  0
   17.0230   -2.3569   16.1916 N   0  0  0  0  0  0  0  0  0  0  0  0
   17.6113   -1.5210   17.3226 C   0  0  0  0  0  0  0  0  0  0  0  0
   19.1245   -1.9580   17.3504 C   0  0  0  0  0  0  0  0  0  0  0  0
   17.6918    0.0099   17.0363 C   0  0  0  0  0  0  0  0  0  0  0  0
   17.6150    0.8987   18.1532 O   0  0  0  0  0  0  0  0  0  0  0  0
   17.0933   -1.9706   18.7389 C   0  0  0  0  0  0  0  0  0  0  0  0
   17.0484   -0.9719   19.7655 O   0  0  0  0  0  0  0  0  0  0  0  0
   14.5076   -0.7336   16.1041 C   0  0  0  0  0  0  0  0  0  0  0  0
   14.6881    0.6628   16.0401 C   0  0  0  0  0  0  0  0  0  0  0  0
   14.8203    1.3914   17.2167 C   0  0  0  0  0  0  0  0  0  0  0  0
   14.7229    0.7238   18.4365 C   0  0  0  0  0  0  0  0  0  0  0  0
   14.4272   -0.6526   18.4837 C   0  0  0  0  0  0  0  0  0  0  0  0
   14.2783   -1.4171   17.3146 C   0  0  0  0  0  0  0  0  0  0  0  0
   13.7431   -2.8520   17.2579 C   0  0  0  0  0  0  0  0  0  0  0  0
   13.7543   -3.5647   18.5346 N   0  0  0  0  0  0  0  0  0  0  0  0
   14.8005   -4.4407   18.8612 C   0  0  0  0  0  0  0  0  0  0  0  0
   15.8043   -4.8722   17.9874 C   0  0  0  0  0  0  0  0  0  0  0  0
   16.8476   -5.6937   18.4313 C   0  0  0  0  0  0  0  0  0  0  0  0
   16.8881   -6.1184   19.7563 C   0  0  0  0  0  0  0  0  0  0  0  0
   15.8852   -5.7274   20.6377 C   0  0  0  0  0  0  0  0  0  0  0  0
   14.8650   -4.9001   20.1847 C   0  0  0  0  0  0  0  0  0  0  0  0
   13.9105   -4.5027   21.0813 O   0  0  0  0  0  0  0  0  0  0  0  0
   13.1080   -1.8850   13.9035 H   0  0  0  0  0  0  0  0  0  0  0  0
   14.5676   -2.1082   12.9295 H   0  0  0  0  0  0  0  0  0  0  0  0
   14.0249   -0.4774   13.3288 H   0  0  0  0  0  0  0  0  0  0  0  0
   16.4046   -2.8145   14.3144 H   0  0  0  0  0  0  0  0  0  0  0  0
   17.6642   -3.1121   15.9470 H   0  0  0  0  0  0  0  0  0  0  0  0
   19.2308   -3.0345   17.5344 H   0  0  0  0  0  0  0  0  0  0  0  0
   19.6145   -1.7583   16.3892 H   0  0  0  0  0  0  0  0  0  0  0  0
   19.6759   -1.4253   18.1341 H   0  0  0  0  0  0  0  0  0  0  0  0
   17.0029    0.3281   16.2673 H   0  0  0  0  0  0  0  0  0  0  0  0
   18.6552    0.2457   16.5651 H   0  0  0  0  0  0  0  0  0  0  0  0
   17.3041    0.3724   18.9201 H   0  0  0  0  0  0  0  0  0  0  0  0
   16.1090   -2.3830   18.6626 H   0  0  0  0  0  0  0  0  0  0  0  0
   17.7106   -2.7857   19.1346 H   0  0  0  0  0  0  0  0  0  0  0  0
   16.6758   -1.4187   20.5496 H   0  0  0  0  0  0  0  0  0  0  0  0
   14.8707    1.1571   15.0890 H   0  0  0  0  0  0  0  0  0  0  0  0
   15.0504    2.4523   17.1870 H   0  0  0  0  0  0  0  0  0  0  0  0
   14.8633    1.2757   19.3635 H   0  0  0  0  0  0  0  0  0  0  0  0
   14.3140   -1.1188   19.4611 H   0  0  0  0  0  0  0  0  0  0  0  0
   12.6888   -2.7602   16.9635 H   0  0  0  0  0  0  0  0  0  0  0  0
   14.1797   -3.4567   16.4632 H   0  0  0  0  0  0  0  0  0  0  0  0
   12.8633   -4.0558   18.6740 H   0  0  0  0  0  0  0  0  0  0  0  0
   15.8131   -4.5813   16.9435 H   0  0  0  0  0  0  0  0  0  0  0  0
   17.6220   -6.0096   17.7372 H   0  0  0  0  0  0  0  0  0  0  0  0
   17.6925   -6.7634   20.1001 H   0  0  0  0  0  0  0  0  0  0  0  0
   15.9011   -6.0542   21.6730 H   0  0  0  0  0  0  0  0  0  0  0  0
   13.4784   -3.7265   20.6720 H   0  0  0  0  0  0  0  0  0  0  0  0
  1  2  1  0
  2  3  2  3
  3  4  1  0
  4  5  1  0
  5  6  1  0
  5  7  1  0
  7  8  1  0
  5  9  1  0
  9 10  1  0
  2 11  1  0
 11 12  2  0
 12 13  1  0
 13 14  2  0
 14 15  1  0
 15 16  2  0
 16 17  1  0
 17 18  1  0
 18 19  1  0
 19 20  2  0
 20 21  1  0
 21 22  2  0
 22 23  1  0
 23 24  2  0
 24 25  1  0
 16 11  1  0
 24 19  1  0
  1 26  1  0
  1 27  1  0
  1 28  1  0
  3 29  1  0
  4 30  1  0
  6 31  1  0
  6 32  1  0
  6 33  1  0
  7 34  1  0
  7 35  1  0
  8 36  1  0
  9 37  1  0
  9 38  1  0
 10 39  1  0
 12 40  1  0
 13 41  1  0
 14 42  1  0
 15 43  1  0
 17 44  1  0
 17 45  1  0
 18 46  1  0
 20 47  1  0
 21 48  1  0
 22 49  1  0
 23 50  1  0
 25 51  1  0
M  END
>  <Energy>  (587) 
169.03807144769735

>  <compound_id>  (587) 
1887

>  <target_id>  (587) 
1

>  <reference_id>  (587) 
23

>  <inspiration_ids>  (587) 
[27, 23]

>  <energy_score>  (587) 
-27.794598460181646

>  <distance_score>  (587) 
1.9042312180425238

>  <path>  (587) 
/opt/xchem-fragalysis-2/maxwin/BulkDock/SCRATCH/505732/C1887-P23/C1887-P23.minimised.mol

>  <scratch_subdir>  (587) 
/opt/xchem-fragalysis-2/maxwin/BulkDock/SCRATCH/505732/C1887-P23

>  <fragmenstein_runtime>  (587) 
7.366648435592651

>  <fragmenstein_outcome>  (587) 
too moved

>  <fragmenstein_mode>  (587) 
expansion

>  <fragmenstein_error>  (587) 


$$$$
C1888-P27
     RDKit          3D

 37 38  0  0  0  0  0  0  0  0999 V2000
   13.4085    3.1967   14.1316 O   0  0  0  0  0  0  0  0  0  0  0  0
   14.3007    2.9904   14.9399 C   0  0  0  0  0  0  0  0  0  0  0  0
   15.0552    3.9828   15.4609 O   0  0  0  0  0  0  0  0  0  0  0  0
   14.6465    1.6277   15.4804 C   0  0  0  0  0  0  0  0  0  0  0  0
   13.9198    1.3829   16.8004 C   0  0  0  0  0  0  0  0  0  0  0  0
   14.0939   -0.0497   17.3173 C   0  0  0  0  0  0  0  0  0  0  0  0
   13.2813   -1.1497   16.6651 C   0  0  0  0  0  0  0  0  0  0  0  0
   12.3546   -0.8854   15.6454 C   0  0  0  0  0  0  0  0  0  0  0  0
   11.5920   -1.9062   15.0951 C   0  0  0  0  0  0  0  0  0  0  0  0
   11.7470   -3.2060   15.5442 C   0  0  0  0  0  0  0  0  0  0  0  0
   12.6777   -3.5009   16.5371 C   0  0  0  0  0  0  0  0  0  0  0  0
   13.4499   -2.4842   17.1080 C   0  0  0  0  0  0  0  0  0  0  0  0
   14.2126   -2.7453   18.2771 N   0  0  0  0  0  0  0  0  0  0  0  0
   15.1048   -3.8319   18.4724 C   0  0  0  0  0  0  0  0  0  0  0  0
   16.0615   -4.1828   17.5193 C   0  0  0  0  0  0  0  0  0  0  0  0
   17.0119   -5.1650   17.8121 C   0  0  0  0  0  0  0  0  0  0  0  0
   17.0113   -5.8004   19.0570 C   0  0  0  0  0  0  0  0  0  0  0  0
   16.0592   -5.4623   20.0177 C   0  0  0  0  0  0  0  0  0  0  0  0
   15.1189   -4.4827   19.7185 C   0  0  0  0  0  0  0  0  0  0  0  0
   14.1498   -4.1387   20.6247 O   0  0  0  0  0  0  0  0  0  0  0  0
   15.7141    3.6770   16.1123 H   0  0  0  0  0  0  0  0  0  0  0  0
   14.3749    0.8928   14.7157 H   0  0  0  0  0  0  0  0  0  0  0  0
   15.7328    1.5471   15.6022 H   0  0  0  0  0  0  0  0  0  0  0  0
   14.3446    2.0661   17.5484 H   0  0  0  0  0  0  0  0  0  0  0  0
   12.8599    1.6547   16.7287 H   0  0  0  0  0  0  0  0  0  0  0  0
   15.1570   -0.3161   17.2544 H   0  0  0  0  0  0  0  0  0  0  0  0
   13.8297   -0.0353   18.3821 H   0  0  0  0  0  0  0  0  0  0  0  0
   12.1883    0.1177   15.2629 H   0  0  0  0  0  0  0  0  0  0  0  0
   10.8716   -1.6786   14.3182 H   0  0  0  0  0  0  0  0  0  0  0  0
   11.1187   -3.9831   15.1240 H   0  0  0  0  0  0  0  0  0  0  0  0
   12.7593   -4.5213   16.8997 H   0  0  0  0  0  0  0  0  0  0  0  0
   13.5646   -2.7914   19.0727 H   0  0  0  0  0  0  0  0  0  0  0  0
   16.0872   -3.6748   16.5587 H   0  0  0  0  0  0  0  0  0  0  0  0
   17.7594   -5.4294   17.0679 H   0  0  0  0  0  0  0  0  0  0  0  0
   17.7536   -6.5655   19.2720 H   0  0  0  0  0  0  0  0  0  0  0  0
   16.0627   -5.9701   20.9763 H   0  0  0  0  0  0  0  0  0  0  0  0
   14.4102   -4.4685   21.5006 H   0  0  0  0  0  0  0  0  0  0  0  0
  1  2  2  0
  2  3  1  0
  2  4  1  0
  4  5  1  0
  5  6  1  0
  6  7  1  0
  7  8  2  0
  8  9  1  0
  9 10  2  0
 10 11  1  0
 11 12  2  0
 12 13  1  0
 13 14  1  0
 14 15  2  0
 15 16  1  0
 16 17  2  0
 17 18  1  0
 18 19  2  0
 19 20  1  0
 12  7  1  0
 19 14  1  0
  3 21  1  0
  4 22  1  0
  4 23  1  0
  5 24  1  0
  5 25  1  0
  6 26  1  0
  6 27  1  0
  8 28  1  0
  9 29  1  0
 10 30  1  0
 11 31  1  0
 13 32  1  0
 15 33  1  0
 16 34  1  0
 17 35  1  0
 18 36  1  0
 20 37  1  0
M  END
>  <Energy>  (588) 
19.822049492093043

>  <compound_id>  (588) 
1888

>  <target_id>  (588) 
1

>  <reference_id>  (588) 
27

>  <inspiration_ids>  (588) 
[27, 26]

>  <energy_score>  (588) 
-27.845295794755913

>  <distance_score>  (588) 
1.1064519509437873

>  <path>  (588) 
/opt/xchem-fragalysis-2/maxwin/BulkDock/SCRATCH/505732/C1888-P27/C1888-P27.minimised.mol

>  <scratch_subdir>  (588) 
/opt/xchem-fragalysis-2/maxwin/BulkDock/SCRATCH/505732/C1888-P27

>  <fragmenstein_runtime>  (588) 
2.182269334793091

>  <fragmenstein_outcome>  (588) 
too moved

>  <fragmenstein_mode>  (588) 
expansion

>  <fragmenstein_error>  (588) 


$$$$
C1888-P26
     RDKit          3D

 37 38  0  0  0  0  0  0  0  0999 V2000
   13.9523    3.6199   14.8346 O   0  0  0  0  0  0  0  0  0  0  0  0
   14.6672    2.6954   14.4843 C   0  0  0  0  0  0  0  0  0  0  0  0
   15.4082    2.7435   13.3519 O   0  0  0  0  0  0  0  0  0  0  0  0
   14.8280    1.3832   15.2145 C   0  0  0  0  0  0  0  0  0  0  0  0
   14.0609    1.3643   16.5401 C   0  0  0  0  0  0  0  0  0  0  0  0
   14.1402    0.0011   17.2364 C   0  0  0  0  0  0  0  0  0  0  0  0
   13.3442   -1.1452   16.6444 C   0  0  0  0  0  0  0  0  0  0  0  0
   12.3658   -0.9360   15.6590 C   0  0  0  0  0  0  0  0  0  0  0  0
   11.5991   -1.9899   15.1840 C   0  0  0  0  0  0  0  0  0  0  0  0
   11.8022   -3.2660   15.6791 C   0  0  0  0  0  0  0  0  0  0  0  0
   12.7861   -3.5093   16.6335 C   0  0  0  0  0  0  0  0  0  0  0  0
   13.5578   -2.4569   17.1338 C   0  0  0  0  0  0  0  0  0  0  0  0
   14.3497   -2.6491   18.2975 N   0  0  0  0  0  0  0  0  0  0  0  0
   15.2757   -3.6994   18.5222 C   0  0  0  0  0  0  0  0  0  0  0  0
   16.2821   -4.0009   17.6046 C   0  0  0  0  0  0  0  0  0  0  0  0
   17.2563   -4.9511   17.9248 C   0  0  0  0  0  0  0  0  0  0  0  0
   17.2264   -5.6050   19.1603 C   0  0  0  0  0  0  0  0  0  0  0  0
   16.2211   -5.3188   20.0839 C   0  0  0  0  0  0  0  0  0  0  0  0
   15.2574   -4.3713   19.7573 C   0  0  0  0  0  0  0  0  0  0  0  0
   14.2287   -4.0893   20.6182 O   0  0  0  0  0  0  0  0  0  0  0  0
   15.9231    1.9302   13.1885 H   0  0  0  0  0  0  0  0  0  0  0  0
   14.4771    0.5901   14.5473 H   0  0  0  0  0  0  0  0  0  0  0  0
   15.8949    1.2295   15.4128 H   0  0  0  0  0  0  0  0  0  0  0  0
   14.5134    2.1135   17.2036 H   0  0  0  0  0  0  0  0  0  0  0  0
   13.0210    1.6835   16.4062 H   0  0  0  0  0  0  0  0  0  0  0  0
   15.1970   -0.2923   17.2862 H   0  0  0  0  0  0  0  0  0  0  0  0
   13.7988    0.1391   18.2692 H   0  0  0  0  0  0  0  0  0  0  0  0
   12.1564    0.0515   15.2585 H   0  0  0  0  0  0  0  0  0  0  0  0
   10.8308   -1.8097   14.4411 H   0  0  0  0  0  0  0  0  0  0  0  0
   11.1607   -4.0674   15.3367 H   0  0  0  0  0  0  0  0  0  0  0  0
   12.8962   -4.5131   17.0324 H   0  0  0  0  0  0  0  0  0  0  0  0
   13.7153   -2.6852   19.1038 H   0  0  0  0  0  0  0  0  0  0  0  0
   16.3269   -3.4772   16.6534 H   0  0  0  0  0  0  0  0  0  0  0  0
   18.0448   -5.1769   17.2108 H   0  0  0  0  0  0  0  0  0  0  0  0
   17.9862   -6.3464   19.3967 H   0  0  0  0  0  0  0  0  0  0  0  0
   16.1998   -5.8453   21.0321 H   0  0  0  0  0  0  0  0  0  0  0  0
   14.4806   -4.3841   21.5096 H   0  0  0  0  0  0  0  0  0  0  0  0
  1  2  2  0
  2  3  1  0
  2  4  1  0
  4  5  1  0
  5  6  1  0
  6  7  1  0
  7  8  2  0
  8  9  1  0
  9 10  2  0
 10 11  1  0
 11 12  2  0
 12 13  1  0
 13 14  1  0
 14 15  2  0
 15 16  1  0
 16 17  2  0
 17 18  1  0
 18 19  2  0
 19 20  1  0
 12  7  1  0
 19 14  1  0
  3 21  1  0
  4 22  1  0
  4 23  1  0
  5 24  1  0
  5 25  1  0
  6 26  1  0
  6 27  1  0
  8 28  1  0
  9 29  1  0
 10 30  1  0
 11 31  1  0
 13 32  1  0
 15 33  1  0
 16 34  1  0
 17 35  1  0
 18 36  1  0
 20 37  1  0
M  END
>  <Energy>  (589) 
19.496346922652918

>  <compound_id>  (589) 
1888

>  <target_id>  (589) 
1

>  <reference_id>  (589) 
26

>  <inspiration_ids>  (589) 
[27, 26]

>  <energy_score>  (589) 
-28.170998364195498

>  <distance_score>  (589) 
0.7780035266759623

>  <path>  (589) 
/opt/xchem-fragalysis-2/maxwin/BulkDock/SCRATCH/505732/C1888-P26/C1888-P26.minimised.mol

>  <scratch_subdir>  (589) 
/opt/xchem-fragalysis-2/maxwin/BulkDock/SCRATCH/505732/C1888-P26

>  <fragmenstein_runtime>  (589) 
2.0135245323181152

>  <fragmenstein_outcome>  (589) 
acceptable

>  <fragmenstein_mode>  (589) 
expansion

>  <fragmenstein_error>  (589) 


$$$$
C1891-P27
     RDKit          3D

 57 59  0  0  0  0  0  0  0  0999 V2000
   12.9040    3.7880   17.3225 C   0  0  0  0  0  0  0  0  0  0  0  0
   13.9577    2.8539   17.9008 C   0  0  0  0  0  0  0  0  0  0  0  0
   14.3054    1.7479   16.8960 C   0  0  0  0  0  0  0  0  0  0  0  0
   15.5446    0.9250   17.2397 C   0  0  0  0  0  0  0  0  0  0  0  0
   16.7269    1.6703   17.4144 C   0  0  0  0  0  0  0  0  0  0  0  0
   17.9273    1.0522   17.6968 C   0  0  0  0  0  0  0  0  0  0  0  0
   17.9756   -0.3289   17.7710 C   0  0  0  0  0  0  0  0  0  0  0  0
   16.8346   -1.1333   17.5558 C   0  0  0  0  0  0  0  0  0  0  0  0
   17.1021   -2.6227   17.6026 C   0  0  0  0  0  0  0  0  0  0  0  0
   16.4797   -3.2001   18.7769 N   0  0  0  0  0  0  0  0  0  0  0  0
   16.6639   -4.5545   19.0826 C   0  0  0  0  0  0  0  0  0  0  0  0
   17.2702   -5.4692   18.2150 C   0  0  0  0  0  0  0  0  0  0  0  0
   17.4039   -6.8164   18.5684 C   0  0  0  0  0  0  0  0  0  0  0  0
   16.9047   -7.2790   19.7836 C   0  0  0  0  0  0  0  0  0  0  0  0
   16.2541   -6.4000   20.6414 C   0  0  0  0  0  0  0  0  0  0  0  0
   16.1193   -5.0647   20.2765 C   0  0  0  0  0  0  0  0  0  0  0  0
   15.3965   -4.2668   21.1246 O   0  0  0  0  0  0  0  0  0  0  0  0
   15.5833   -0.5141   17.3013 C   0  0  0  0  0  0  0  0  0  0  0  0
   14.2811   -1.2578   17.0704 C   0  0  0  0  0  0  0  0  0  0  0  0
   13.9083   -1.2514   15.6038 C   0  0  0  0  0  0  0  0  0  0  0  0
   12.4681   -1.5629   15.4001 N   0  0  0  0  0  0  0  0  0  0  0  0
   12.1335   -1.4385   14.0297 C   0  0  0  0  0  0  0  0  0  0  0  0
   11.7690    0.0111   13.7504 C   0  0  0  0  0  0  0  0  0  0  0  0
   12.1448   -2.2508   13.1487 O   0  0  0  0  0  0  0  0  0  0  0  0
   12.8378   -2.7771   16.2189 C   0  0  0  0  0  0  0  0  0  0  0  0
   14.0154   -2.7191   17.1838 C   0  0  0  0  0  0  0  0  0  0  0  0
   13.6330   -3.2261   18.5374 C   0  0  0  0  0  0  0  0  0  0  0  0
   13.8111   -2.6708   19.6089 O   0  0  0  0  0  0  0  0  0  0  0  0
   13.0583   -4.4411   18.4763 O   0  0  0  0  0  0  0  0  0  0  0  0
   11.9973    3.2393   17.0495 H   0  0  0  0  0  0  0  0  0  0  0  0
   12.6381    4.5590   18.0519 H   0  0  0  0  0  0  0  0  0  0  0  0
   13.2795    4.2912   16.4254 H   0  0  0  0  0  0  0  0  0  0  0  0
   14.8306    3.4566   18.1694 H   0  0  0  0  0  0  0  0  0  0  0  0
   13.5896    2.4039   18.8300 H   0  0  0  0  0  0  0  0  0  0  0  0
   13.4117    1.1305   16.7876 H   0  0  0  0  0  0  0  0  0  0  0  0
   14.4830    2.1886   15.9054 H   0  0  0  0  0  0  0  0  0  0  0  0
   16.7207    2.7545   17.3230 H   0  0  0  0  0  0  0  0  0  0  0  0
   18.8270    1.6423   17.8474 H   0  0  0  0  0  0  0  0  0  0  0  0
   18.9398   -0.7879   17.9893 H   0  0  0  0  0  0  0  0  0  0  0  0
   16.7694   -3.0760   16.6634 H   0  0  0  0  0  0  0  0  0  0  0  0
   18.1843   -2.8050   17.6445 H   0  0  0  0  0  0  0  0  0  0  0  0
   16.6199   -2.6236   19.6091 H   0  0  0  0  0  0  0  0  0  0  0  0
   17.6696   -5.1610   17.2544 H   0  0  0  0  0  0  0  0  0  0  0  0
   17.8906   -7.5110   17.8881 H   0  0  0  0  0  0  0  0  0  0  0  0
   17.0050   -8.3278   20.0503 H   0  0  0  0  0  0  0  0  0  0  0  0
   15.8374   -6.7519   21.5801 H   0  0  0  0  0  0  0  0  0  0  0  0
   15.0608   -3.5084   20.5988 H   0  0  0  0  0  0  0  0  0  0  0  0
   13.5277   -0.7422   17.6810 H   0  0  0  0  0  0  0  0  0  0  0  0
   14.5559   -1.8765   14.9562 H   0  0  0  0  0  0  0  0  0  0  0  0
   14.0556   -0.2537   15.1706 H   0  0  0  0  0  0  0  0  0  0  0  0
   11.7518    0.6130   14.6644 H   0  0  0  0  0  0  0  0  0  0  0  0
   10.7791    0.0715   13.2979 H   0  0  0  0  0  0  0  0  0  0  0  0
   12.5108    0.4372   13.0690 H   0  0  0  0  0  0  0  0  0  0  0  0
   11.9046   -3.0086   16.7444 H   0  0  0  0  0  0  0  0  0  0  0  0
   12.9491   -3.6177   15.5309 H   0  0  0  0  0  0  0  0  0  0  0  0
   14.7958   -3.3679   16.7855 H   0  0  0  0  0  0  0  0  0  0  0  0
   12.5940   -4.5379   19.3417 H   0  0  0  0  0  0  0  0  0  0  0  0
  1  2  1  0
  2  3  1  0
  3  4  1  0
  4  5  2  0
  5  6  1  0
  6  7  2  0
  7  8  1  0
  8  9  1  0
  9 10  1  0
 10 11  1  0
 11 12  2  0
 12 13  1  0
 13 14  2  0
 14 15  1  0
 15 16  2  0
 16 17  1  0
  8 18  2  0
 18 19  1  0
 19 20  1  0
 20 21  1  0
 21 22  1  0
 22 23  1  0
 22 24  2  0
 21 25  1  0
 25 26  1  0
 26 27  1  0
 27 28  2  0
 27 29  1  0
 18  4  1  0
 26 19  1  0
 16 11  1  0
  1 30  1  0
  1 31  1  0
  1 32  1  0
  2 33  1  0
  2 34  1  0
  3 35  1  0
  3 36  1  0
  5 37  1  0
  6 38  1  0
  7 39  1  0
  9 40  1  0
  9 41  1  0
 10 42  1  0
 12 43  1  0
 13 44  1  0
 14 45  1  0
 15 46  1  0
 17 47  1  0
 19 48  1  0
 20 49  1  0
 20 50  1  0
 23 51  1  0
 23 52  1  0
 23 53  1  0
 25 54  1  0
 25 55  1  0
 26 56  1  0
 29 57  1  0
M  END
>  <Energy>  (590) 
80.656406803342549

>  <compound_id>  (590) 
1891

>  <target_id>  (590) 
1

>  <reference_id>  (590) 
27

>  <inspiration_ids>  (590) 
[27, 36]

>  <energy_score>  (590) 
-3.655437256187554

>  <distance_score>  (590) 
3.181172508741353

>  <path>  (590) 
/opt/xchem-fragalysis-2/maxwin/BulkDock/SCRATCH/505732/C1891-P27/C1891-P27.minimised.mol

>  <scratch_subdir>  (590) 
/opt/xchem-fragalysis-2/maxwin/BulkDock/SCRATCH/505732/C1891-P27

>  <fragmenstein_runtime>  (590) 
7.74503755569458

>  <fragmenstein_outcome>  (590) 
too moved

>  <fragmenstein_mode>  (590) 
expansion

>  <fragmenstein_error>  (590) 


$$$$
C1891-P36
     RDKit          3D

 57 59  0  0  0  0  0  0  0  0999 V2000
   14.8012    1.5366   20.2394 C   0  0  0  0  0  0  0  0  0  0  0  0
   14.3955    2.4380   19.0797 C   0  0  0  0  0  0  0  0  0  0  0  0
   14.2455    1.6974   17.7411 C   0  0  0  0  0  0  0  0  0  0  0  0
   15.5140    0.9731   17.3158 C   0  0  0  0  0  0  0  0  0  0  0  0
   16.6008    1.8110   17.0046 C   0  0  0  0  0  0  0  0  0  0  0  0
   17.8511    1.2834   16.7635 C   0  0  0  0  0  0  0  0  0  0  0  0
   18.0412   -0.0821   16.8986 C   0  0  0  0  0  0  0  0  0  0  0  0
   16.9790   -0.9629   17.2053 C   0  0  0  0  0  0  0  0  0  0  0  0
   17.4014   -2.3959   17.4488 C   0  0  0  0  0  0  0  0  0  0  0  0
   16.8535   -2.8414   18.7257 N   0  0  0  0  0  0  0  0  0  0  0  0
   17.0373   -4.1881   19.1111 C   0  0  0  0  0  0  0  0  0  0  0  0
   17.2893   -5.2341   18.2201 C   0  0  0  0  0  0  0  0  0  0  0  0
   17.3159   -6.5597   18.6666 C   0  0  0  0  0  0  0  0  0  0  0  0
   17.0607   -6.8616   20.0035 C   0  0  0  0  0  0  0  0  0  0  0  0
   16.7686   -5.8414   20.9029 C   0  0  0  0  0  0  0  0  0  0  0  0
   16.7501   -4.5271   20.4479 C   0  0  0  0  0  0  0  0  0  0  0  0
   16.3966   -3.5071   21.2975 O   0  0  0  0  0  0  0  0  0  0  0  0
   15.6588   -0.4561   17.2982 C   0  0  0  0  0  0  0  0  0  0  0  0
   14.3799   -1.3055   17.3601 C   0  0  0  0  0  0  0  0  0  0  0  0
   13.5151   -1.0108   16.1139 C   0  0  0  0  0  0  0  0  0  0  0  0
   13.7438   -2.0460   15.0514 N   0  0  0  0  0  0  0  0  0  0  0  0
   13.0859   -1.6798   13.8582 C   0  0  0  0  0  0  0  0  0  0  0  0
   14.0354   -0.8781   12.9913 C   0  0  0  0  0  0  0  0  0  0  0  0
   11.9827   -1.9334   13.4690 O   0  0  0  0  0  0  0  0  0  0  0  0
   13.3248   -2.9484   16.1544 C   0  0  0  0  0  0  0  0  0  0  0  0
   14.3319   -2.8179   17.2651 C   0  0  0  0  0  0  0  0  0  0  0  0
   13.8394   -3.5951   18.4549 C   0  0  0  0  0  0  0  0  0  0  0  0
   13.2504   -4.6621   18.3608 O   0  0  0  0  0  0  0  0  0  0  0  0
   14.1513   -3.0560   19.6457 O   0  0  0  0  0  0  0  0  0  0  0  0
   15.8296    1.1795   20.1261 H   0  0  0  0  0  0  0  0  0  0  0  0
   14.7474    2.0915   21.1815 H   0  0  0  0  0  0  0  0  0  0  0  0
   14.1460    0.6651   20.3206 H   0  0  0  0  0  0  0  0  0  0  0  0
   13.4384    2.9135   19.3197 H   0  0  0  0  0  0  0  0  0  0  0  0
   15.1270    3.2497   18.9905 H   0  0  0  0  0  0  0  0  0  0  0  0
   13.3912    1.0260   17.8119 H   0  0  0  0  0  0  0  0  0  0  0  0
   13.9793    2.4191   16.9576 H   0  0  0  0  0  0  0  0  0  0  0  0
   16.4735    2.8917   16.9745 H   0  0  0  0  0  0  0  0  0  0  0  0
   18.6881    1.9352   16.5299 H   0  0  0  0  0  0  0  0  0  0  0  0
   19.0546   -0.4644   16.7779 H   0  0  0  0  0  0  0  0  0  0  0  0
   17.1119   -2.9956   16.5813 H   0  0  0  0  0  0  0  0  0  0  0  0
   18.4952   -2.4686   17.5119 H   0  0  0  0  0  0  0  0  0  0  0  0
   17.1871   -2.2581   19.5026 H   0  0  0  0  0  0  0  0  0  0  0  0
   17.4594   -5.0573   17.1638 H   0  0  0  0  0  0  0  0  0  0  0  0
   17.5138   -7.3657   17.9632 H   0  0  0  0  0  0  0  0  0  0  0  0
   17.0702   -7.8968   20.3359 H   0  0  0  0  0  0  0  0  0  0  0  0
   16.5511   -6.0817   21.9383 H   0  0  0  0  0  0  0  0  0  0  0  0
   15.8094   -3.8856   21.9769 H   0  0  0  0  0  0  0  0  0  0  0  0
   13.8643   -0.9762   18.2636 H   0  0  0  0  0  0  0  0  0  0  0  0
   13.7811   -0.0520   15.6487 H   0  0  0  0  0  0  0  0  0  0  0  0
   12.4422   -0.8740   16.3463 H   0  0  0  0  0  0  0  0  0  0  0  0
   13.5903    0.0989   12.7841 H   0  0  0  0  0  0  0  0  0  0  0  0
   14.2008   -1.4171   12.0541 H   0  0  0  0  0  0  0  0  0  0  0  0
   15.0051   -0.7242   13.4740 H   0  0  0  0  0  0  0  0  0  0  0  0
   12.2570   -2.8635   16.4246 H   0  0  0  0  0  0  0  0  0  0  0  0
   13.3820   -3.9639   15.7505 H   0  0  0  0  0  0  0  0  0  0  0  0
   15.2320   -3.2948   16.9023 H   0  0  0  0  0  0  0  0  0  0  0  0
   15.0308   -2.6109   19.5919 H   0  0  0  0  0  0  0  0  0  0  0  0
  1  2  1  0
  2  3  1  0
  3  4  1  0
  4  5  2  0
  5  6  1  0
  6  7  2  0
  7  8  1  0
  8  9  1  0
  9 10  1  0
 10 11  1  0
 11 12  2  0
 12 13  1  0
 13 14  2  0
 14 15  1  0
 15 16  2  0
 16 17  1  0
  8 18  2  0
 18 19  1  0
 19 20  1  0
 20 21  1  0
 21 22  1  0
 22 23  1  0
 22 24  2  0
 21 25  1  0
 25 26  1  0
 26 27  1  0
 27 28  2  0
 27 29  1  0
 18  4  1  0
 26 19  1  0
 16 11  1  0
  1 30  1  0
  1 31  1  0
  1 32  1  0
  2 33  1  0
  2 34  1  0
  3 35  1  0
  3 36  1  0
  5 37  1  0
  6 38  1  0
  7 39  1  0
  9 40  1  0
  9 41  1  0
 10 42  1  0
 12 43  1  0
 13 44  1  0
 14 45  1  0
 15 46  1  0
 17 47  1  0
 19 48  1  0
 20 49  1  0
 20 50  1  0
 23 51  1  0
 23 52  1  0
 23 53  1  0
 25 54  1  0
 25 55  1  0
 26 56  1  0
 29 57  1  0
M  END
>  <Energy>  (591) 
82.698773341267099

>  <compound_id>  (591) 
1891

>  <target_id>  (591) 
1

>  <reference_id>  (591) 
36

>  <inspiration_ids>  (591) 
[27, 36]

>  <energy_score>  (591) 
-1.613070718262776

>  <distance_score>  (591) 
3.2849192218946808

>  <path>  (591) 
/opt/xchem-fragalysis-2/maxwin/BulkDock/SCRATCH/505732/C1891-P36/C1891-P36.minimised.mol

>  <scratch_subdir>  (591) 
/opt/xchem-fragalysis-2/maxwin/BulkDock/SCRATCH/505732/C1891-P36

>  <fragmenstein_runtime>  (591) 
7.944121837615967

>  <fragmenstein_outcome>  (591) 
too moved

>  <fragmenstein_mode>  (591) 
expansion

>  <fragmenstein_error>  (591) 


$$$$
C1894-P27
     RDKit          3D

 50 52  0  0  0  0  0  0  0  0999 V2000
   15.5888    0.7392   15.5492 C   0  0  0  0  0  0  0  0  0  0  0  0
   14.7348    0.1625   16.6756 C   0  0  0  0  0  0  0  0  0  0  0  0
   13.9448   -1.0784   16.2797 C   0  0  0  0  0  0  0  0  0  0  0  0
   13.0716   -0.9475   15.1749 C   0  0  0  0  0  0  0  0  0  0  0  0
   12.1556   -1.9390   14.8639 C   0  0  0  0  0  0  0  0  0  0  0  0
   12.0722   -3.0530   15.6806 C   0  0  0  0  0  0  0  0  0  0  0  0
   12.9206   -3.1967   16.7884 C   0  0  0  0  0  0  0  0  0  0  0  0
   12.6234   -4.2765   17.5595 O   0  0  0  0  0  0  0  0  0  0  0  0
   13.9490   -2.2723   17.0825 C   0  0  0  0  0  0  0  0  0  0  0  0
   14.6317   -2.0722   18.4032 N   0  0  0  0  0  0  0  0  0  0  0  0
   14.1876   -2.4284   19.8085 C   0  0  0  0  0  0  0  0  0  0  0  0
   13.2394   -3.0165   20.1808 O   0  0  0  0  0  0  0  0  0  0  0  0
   15.1758   -1.7737   20.7309 C   0  0  0  0  0  0  0  0  0  0  0  0
   16.2588   -2.8470   21.5627 S   0  0  0  0  0  0  0  0  0  0  0  0
   17.2856   -3.2687   20.6271 O   0  0  0  0  0  0  0  0  0  0  0  0
   16.6633   -2.1859   22.7926 O   0  0  0  0  0  0  0  0  0  0  0  0
   15.3591   -4.2715   22.0595 C   0  0  0  0  0  0  0  0  0  0  0  0
   14.1546   -4.1190   22.7407 C   0  0  0  0  0  0  0  0  0  0  0  0
   13.3975   -5.2467   23.0301 C   0  0  0  0  0  0  0  0  0  0  0  0
   13.8461   -6.5119   22.6522 C   0  0  0  0  0  0  0  0  0  0  0  0
   15.0854   -6.6658   22.0358 C   0  0  0  0  0  0  0  0  0  0  0  0
   15.8479   -5.5391   21.7393 C   0  0  0  0  0  0  0  0  0  0  0  0
   15.5491   -3.1937   17.7942 C   0  0  0  0  0  0  0  0  0  0  0  0
   16.6872   -2.8157   17.0630 C   0  0  0  0  0  0  0  0  0  0  0  0
   17.7591   -3.7022   16.8775 C   0  0  0  0  0  0  0  0  0  0  0  0
   17.7551   -4.9693   17.4529 C   0  0  0  0  0  0  0  0  0  0  0  0
   16.6639   -5.3752   18.1971 C   0  0  0  0  0  0  0  0  0  0  0  0
   15.5849   -4.5036   18.3606 C   0  0  0  0  0  0  0  0  0  0  0  0
   14.5260   -4.9771   19.0832 O   0  0  0  0  0  0  0  0  0  0  0  0
   14.9776    1.1409   14.7355 H   0  0  0  0  0  0  0  0  0  0  0  0
   16.2036    1.5612   15.9302 H   0  0  0  0  0  0  0  0  0  0  0  0
   16.2568   -0.0184   15.1270 H   0  0  0  0  0  0  0  0  0  0  0  0
   14.0243    0.9226   17.0245 H   0  0  0  0  0  0  0  0  0  0  0  0
   15.4064   -0.0277   17.5174 H   0  0  0  0  0  0  0  0  0  0  0  0
   13.0659   -0.0418   14.5725 H   0  0  0  0  0  0  0  0  0  0  0  0
   11.4808   -1.8278   14.0196 H   0  0  0  0  0  0  0  0  0  0  0  0
   11.3119   -3.8056   15.4851 H   0  0  0  0  0  0  0  0  0  0  0  0
   12.9224   -4.1148   18.4806 H   0  0  0  0  0  0  0  0  0  0  0  0
   14.6000   -1.2240   21.4843 H   0  0  0  0  0  0  0  0  0  0  0  0
   15.7870   -1.0292   20.2101 H   0  0  0  0  0  0  0  0  0  0  0  0
   13.7760   -3.1379   23.0200 H   0  0  0  0  0  0  0  0  0  0  0  0
   12.4546   -5.1290   23.5591 H   0  0  0  0  0  0  0  0  0  0  0  0
   13.2492   -7.3883   22.8922 H   0  0  0  0  0  0  0  0  0  0  0  0
   15.4563   -7.6588   21.7938 H   0  0  0  0  0  0  0  0  0  0  0  0
   16.8191   -5.6550   21.2625 H   0  0  0  0  0  0  0  0  0  0  0  0
   16.7951   -1.8051   16.6844 H   0  0  0  0  0  0  0  0  0  0  0  0
   18.6281   -3.3743   16.3101 H   0  0  0  0  0  0  0  0  0  0  0  0
   18.6062   -5.6311   17.3172 H   0  0  0  0  0  0  0  0  0  0  0  0
   16.6683   -6.3694   18.6331 H   0  0  0  0  0  0  0  0  0  0  0  0
   14.7754   -5.7957   19.5415 H   0  0  0  0  0  0  0  0  0  0  0  0
  1  2  1  0
  2  3  1  0
  3  4  2  0
  4  5  1  0
  5  6  2  0
  6  7  1  0
  7  8  1  0
  7  9  2  0
  9 10  1  0
 10 11  1  0
 11 12  2  0
 11 13  1  0
 13 14  1  0
 14 15  2  0
 14 16  2  0
 14 17  1  0
 17 18  2  0
 18 19  1  0
 19 20  2  0
 20 21  1  0
 21 22  2  0
 10 23  1  0
 23 24  2  0
 24 25  1  0
 25 26  2  0
 26 27  1  0
 27 28  2  0
 28 29  1  0
  9  3  1  0
 22 17  1  0
 28 23  1  0
  1 30  1  0
  1 31  1  0
  1 32  1  0
  2 33  1  0
  2 34  1  0
  4 35  1  0
  5 36  1  0
  6 37  1  0
  8 38  1  0
 13 39  1  0
 13 40  1  0
 18 41  1  0
 19 42  1  0
 20 43  1  0
 21 44  1  0
 22 45  1  0
 24 46  1  0
 25 47  1  0
 26 48  1  0
 27 49  1  0
 29 50  1  0
M  END
>  <Energy>  (592) 
163.00331789805477

>  <compound_id>  (592) 
1894

>  <target_id>  (592) 
1

>  <reference_id>  (592) 
27

>  <inspiration_ids>  (592) 
[27, 60]

>  <energy_score>  (592) 
17.340085823209165

>  <distance_score>  (592) 
1.7448752932528073

>  <path>  (592) 
/opt/xchem-fragalysis-2/maxwin/BulkDock/SCRATCH/505732/C1894-P27/C1894-P27.minimised.mol

>  <scratch_subdir>  (592) 
/opt/xchem-fragalysis-2/maxwin/BulkDock/SCRATCH/505732/C1894-P27

>  <fragmenstein_runtime>  (592) 
19.705262660980225

>  <fragmenstein_outcome>  (592) 
too moved

>  <fragmenstein_mode>  (592) 
expansion

>  <fragmenstein_error>  (592) 


$$$$
C1894-P60
     RDKit          3D

 50 52  0  0  0  0  0  0  0  0999 V2000
   15.8666    0.5296   15.8116 C   0  0  0  0  0  0  0  0  0  0  0  0
   14.6523    0.2906   16.6999 C   0  0  0  0  0  0  0  0  0  0  0  0
   13.8969   -0.9669   16.3196 C   0  0  0  0  0  0  0  0  0  0  0  0
   13.1050   -0.8845   15.1487 C   0  0  0  0  0  0  0  0  0  0  0  0
   12.2188   -1.8945   14.8043 C   0  0  0  0  0  0  0  0  0  0  0  0
   12.0931   -2.9888   15.6424 C   0  0  0  0  0  0  0  0  0  0  0  0
   12.8697   -3.0845   16.8055 C   0  0  0  0  0  0  0  0  0  0  0  0
   12.5650   -4.1700   17.5794 O   0  0  0  0  0  0  0  0  0  0  0  0
   13.8751   -2.1372   17.1415 C   0  0  0  0  0  0  0  0  0  0  0  0
   14.4365   -1.9670   18.5240 N   0  0  0  0  0  0  0  0  0  0  0  0
   14.0389   -2.6079   19.8344 C   0  0  0  0  0  0  0  0  0  0  0  0
   13.2490   -3.4488   20.0611 O   0  0  0  0  0  0  0  0  0  0  0  0
   14.8124   -1.8609   20.8943 C   0  0  0  0  0  0  0  0  0  0  0  0
   15.9710   -2.8396   21.7562 S   0  0  0  0  0  0  0  0  0  0  0  0
   16.0765   -2.3079   23.1058 O   0  0  0  0  0  0  0  0  0  0  0  0
   17.1856   -2.9643   20.9731 O   0  0  0  0  0  0  0  0  0  0  0  0
   15.2507   -4.4332   21.8982 C   0  0  0  0  0  0  0  0  0  0  0  0
   14.2279   -4.6232   22.8258 C   0  0  0  0  0  0  0  0  0  0  0  0
   13.6186   -5.8674   22.9050 C   0  0  0  0  0  0  0  0  0  0  0  0
   14.0321   -6.9034   22.0679 C   0  0  0  0  0  0  0  0  0  0  0  0
   15.0832   -6.7157   21.1716 C   0  0  0  0  0  0  0  0  0  0  0  0
   15.6911   -5.4699   21.0761 C   0  0  0  0  0  0  0  0  0  0  0  0
   15.6150   -2.7396   17.8516 C   0  0  0  0  0  0  0  0  0  0  0  0
   15.6267   -4.1489   17.6671 C   0  0  0  0  0  0  0  0  0  0  0  0
   16.8037   -4.9091   17.5856 C   0  0  0  0  0  0  0  0  0  0  0  0
   18.0270   -4.3088   17.7912 C   0  0  0  0  0  0  0  0  0  0  0  0
   18.0649   -2.9507   18.0637 C   0  0  0  0  0  0  0  0  0  0  0  0
   16.8842   -2.1924   18.1133 C   0  0  0  0  0  0  0  0  0  0  0  0
   16.9812   -0.8908   18.5457 O   0  0  0  0  0  0  0  0  0  0  0  0
   15.5719    0.7027   14.7710 H   0  0  0  0  0  0  0  0  0  0  0  0
   16.4149    1.4133   16.1532 H   0  0  0  0  0  0  0  0  0  0  0  0
   16.5512   -0.3236   15.8219 H   0  0  0  0  0  0  0  0  0  0  0  0
   13.9692    1.1459   16.6075 H   0  0  0  0  0  0  0  0  0  0  0  0
   14.9477    0.2952   17.7511 H   0  0  0  0  0  0  0  0  0  0  0  0
   13.1500    0.0033   14.5200 H   0  0  0  0  0  0  0  0  0  0  0  0
   11.6017   -1.8134   13.9126 H   0  0  0  0  0  0  0  0  0  0  0  0
   11.3606   -3.7600   15.4165 H   0  0  0  0  0  0  0  0  0  0  0  0
   12.4934   -3.9053   18.5256 H   0  0  0  0  0  0  0  0  0  0  0  0
   15.3314   -0.9812   20.5071 H   0  0  0  0  0  0  0  0  0  0  0  0
   14.0993   -1.4873   21.6313 H   0  0  0  0  0  0  0  0  0  0  0  0
   13.8927   -3.8145   23.4719 H   0  0  0  0  0  0  0  0  0  0  0  0
   12.8263   -6.0302   23.6308 H   0  0  0  0  0  0  0  0  0  0  0  0
   13.5597   -7.8796   22.1458 H   0  0  0  0  0  0  0  0  0  0  0  0
   15.4268   -7.5394   20.5502 H   0  0  0  0  0  0  0  0  0  0  0  0
   16.5169   -5.3250   20.3867 H   0  0  0  0  0  0  0  0  0  0  0  0
   14.7047   -4.7102   17.6414 H   0  0  0  0  0  0  0  0  0  0  0  0
   16.7633   -5.9813   17.4286 H   0  0  0  0  0  0  0  0  0  0  0  0
   18.9433   -4.8915   17.7680 H   0  0  0  0  0  0  0  0  0  0  0  0
   19.0266   -2.4902   18.2741 H   0  0  0  0  0  0  0  0  0  0  0  0
   17.8575   -0.7762   18.9539 H   0  0  0  0  0  0  0  0  0  0  0  0
  1  2  1  0
  2  3  1  0
  3  4  2  0
  4  5  1  0
  5  6  2  0
  6  7  1  0
  7  8  1  0
  7  9  2  0
  9 10  1  0
 10 11  1  0
 11 12  2  0
 11 13  1  0
 13 14  1  0
 14 15  2  0
 14 16  2  0
 14 17  1  0
 17 18  2  0
 18 19  1  0
 19 20  2  0
 20 21  1  0
 21 22  2  0
 10 23  1  0
 23 24  2  0
 24 25  1  0
 25 26  2  0
 26 27  1  0
 27 28  2  0
 28 29  1  0
  9  3  1  0
 22 17  1  0
 28 23  1  0
  1 30  1  0
  1 31  1  0
  1 32  1  0
  2 33  1  0
  2 34  1  0
  4 35  1  0
  5 36  1  0
  6 37  1  0
  8 38  1  0
 13 39  1  0
 13 40  1  0
 18 41  1  0
 19 42  1  0
 20 43  1  0
 21 44  1  0
 22 45  1  0
 24 46  1  0
 25 47  1  0
 26 48  1  0
 27 49  1  0
 29 50  1  0
M  END
>  <Energy>  (593) 
162.56919475276209

>  <compound_id>  (593) 
1894

>  <target_id>  (593) 
1

>  <reference_id>  (593) 
60

>  <inspiration_ids>  (593) 
[27, 60]

>  <energy_score>  (593) 
16.90596267791875

>  <distance_score>  (593) 
1.8159256286994578

>  <path>  (593) 
/opt/xchem-fragalysis-2/maxwin/BulkDock/SCRATCH/505732/C1894-P60/C1894-P60.minimised.mol

>  <scratch_subdir>  (593) 
/opt/xchem-fragalysis-2/maxwin/BulkDock/SCRATCH/505732/C1894-P60

>  <fragmenstein_runtime>  (593) 
18.511356353759766

>  <fragmenstein_outcome>  (593) 
too moved

>  <fragmenstein_mode>  (593) 
expansion

>  <fragmenstein_error>  (593) 


$$$$
C1367-P27
     RDKit          3D

 46 49  0  0  0  0  0  0  0  0999 V2000
   15.0124    0.7056   21.5464 C   0  0  0  0  0  0  0  0  0  0  0  0
   15.6494    0.8174   20.2381 N   0  0  0  0  0  0  0  0  0  0  0  0
   15.0105    1.8400   19.4094 C   0  0  0  0  0  0  0  0  0  0  0  0
   15.5071    1.7196   17.9576 C   0  0  0  0  0  0  0  0  0  0  0  0
   14.9887    0.5488   17.1603 N   0  0  0  0  0  0  0  0  0  0  0  0
   15.1746    0.1898   15.7000 C   0  0  0  0  0  0  0  0  0  0  0  0
   15.8337    0.7003   14.8676 O   0  0  0  0  0  0  0  0  0  0  0  0
   14.2243   -0.9911   15.3541 C   0  0  0  0  0  0  0  0  0  0  0  0
   14.8631   -2.3541   15.6070 C   0  0  0  0  0  0  0  0  0  0  0  0
   13.8651   -3.1235   16.4517 C   0  0  0  0  0  0  0  0  0  0  0  0
   14.1606   -3.0415   17.8920 N   0  0  0  0  0  0  0  0  0  0  0  0
   15.0581   -3.9497   18.4795 C   0  0  0  0  0  0  0  0  0  0  0  0
   16.1191   -4.5478   17.7750 C   0  0  0  0  0  0  0  0  0  0  0  0
   17.0675   -5.3786   18.3997 C   0  0  0  0  0  0  0  0  0  0  0  0
   16.9484   -5.5938   19.7741 C   0  0  0  0  0  0  0  0  0  0  0  0
   17.7032   -6.3359   20.6430 N   0  0  0  0  0  0  0  0  0  0  0  0
   17.1101   -6.1474   21.8063 C   0  0  0  0  0  0  0  0  0  0  0  0
   17.6825   -6.8813   23.2522 Cl  0  0  0  0  0  0  0  0  0  0  0  0
   16.0118   -5.3299   21.7679 O   0  0  0  0  0  0  0  0  0  0  0  0
   15.9146   -4.9783   20.4548 C   0  0  0  0  0  0  0  0  0  0  0  0
   14.9650   -4.1477   19.8705 C   0  0  0  0  0  0  0  0  0  0  0  0
   12.5758   -2.3851   16.1107 C   0  0  0  0  0  0  0  0  0  0  0  0
   12.9258   -1.0087   15.9575 O   0  0  0  0  0  0  0  0  0  0  0  0
   16.0145   -0.1714   18.0442 C   0  0  0  0  0  0  0  0  0  0  0  0
   15.5782   -0.4393   19.4987 C   0  0  0  0  0  0  0  0  0  0  0  0
   15.0945    1.6517   22.0924 H   0  0  0  0  0  0  0  0  0  0  0  0
   13.9512    0.4421   21.4741 H   0  0  0  0  0  0  0  0  0  0  0  0
   15.5150   -0.0565   22.1522 H   0  0  0  0  0  0  0  0  0  0  0  0
   13.9180    1.7414   19.4211 H   0  0  0  0  0  0  0  0  0  0  0  0
   15.2600    2.8345   19.7965 H   0  0  0  0  0  0  0  0  0  0  0  0
   15.0189    2.5577   17.4343 H   0  0  0  0  0  0  0  0  0  0  0  0
   16.5670    1.9832   17.7935 H   0  0  0  0  0  0  0  0  0  0  0  0
   14.0368   -0.8906   14.2754 H   0  0  0  0  0  0  0  0  0  0  0  0
   15.0031   -2.8272   14.6322 H   0  0  0  0  0  0  0  0  0  0  0  0
   15.8732   -2.2972   16.0130 H   0  0  0  0  0  0  0  0  0  0  0  0
   13.7719   -4.1773   16.1783 H   0  0  0  0  0  0  0  0  0  0  0  0
   13.3062   -2.9907   18.4507 H   0  0  0  0  0  0  0  0  0  0  0  0
   16.2419   -4.3893   16.7075 H   0  0  0  0  0  0  0  0  0  0  0  0
   17.8724   -5.8374   17.8359 H   0  0  0  0  0  0  0  0  0  0  0  0
   14.1933   -3.6798   20.4728 H   0  0  0  0  0  0  0  0  0  0  0  0
   12.1639   -2.7369   15.1572 H   0  0  0  0  0  0  0  0  0  0  0  0
   11.8053   -2.4839   16.8693 H   0  0  0  0  0  0  0  0  0  0  0  0
   17.0647    0.1516   17.9216 H   0  0  0  0  0  0  0  0  0  0  0  0
   16.0838   -1.1719   17.6185 H   0  0  0  0  0  0  0  0  0  0  0  0
   16.2516   -1.1738   19.9543 H   0  0  0  0  0  0  0  0  0  0  0  0
   14.5608   -0.8484   19.5094 H   0  0  0  0  0  0  0  0  0  0  0  0
  1  2  1  0
  2  3  1  0
  3  4  1  0
  4  5  1  0
  5  6  1  0
  6  7  2  0
  6  8  1  0
  8  9  1  0
  9 10  1  0
 10 11  1  0
 11 12  1  0
 12 13  2  0
 13 14  1  0
 14 15  2  0
 15 16  1  0
 16 17  2  0
 17 18  1  0
 17 19  1  0
 19 20  1  0
 20 21  2  0
 10 22  1  0
 22 23  1  0
  5 24  1  0
 24 25  1  0
 25  2  1  0
 23  8  1  0
 21 12  1  0
 20 15  1  0
  1 26  1  0
  1 27  1  0
  1 28  1  0
  3 29  1  0
  3 30  1  0
  4 31  1  0
  4 32  1  0
  8 33  1  0
  9 34  1  0
  9 35  1  0
 10 36  1  0
 11 37  1  0
 13 38  1  0
 14 39  1  0
 21 40  1  0
 22 41  1  0
 22 42  1  0
 24 43  1  0
 24 44  1  0
 25 45  1  0
 25 46  1  0
M  END
>  <Energy>  (594) 
186.40028686978837

>  <compound_id>  (594) 
1367

>  <target_id>  (594) 
1

>  <reference_id>  (594) 
27

>  <inspiration_ids>  (594) 
[27, 61]

>  <energy_score>  (594) 
35.84412436885896

>  <distance_score>  (594) 
1.7915731118810194

>  <path>  (594) 
/opt/xchem-fragalysis-2/maxwin/BulkDock/SCRATCH/505732/C1367-P27/C1367-P27.minimised.mol

>  <scratch_subdir>  (594) 
/opt/xchem-fragalysis-2/maxwin/BulkDock/SCRATCH/505732/C1367-P27

>  <fragmenstein_runtime>  (594) 
22.821457862854004

>  <fragmenstein_outcome>  (594) 
too moved

>  <fragmenstein_mode>  (594) 
expansion

>  <fragmenstein_error>  (594) 


$$$$
C1367-P61
     RDKit          3D

 46 49  0  0  0  0  0  0  0  0999 V2000
   14.9465    0.8615   21.1210 C   0  0  0  0  0  0  0  0  0  0  0  0
   15.5717    0.9103   19.8045 N   0  0  0  0  0  0  0  0  0  0  0  0
   14.8353    1.7650   18.8744 C   0  0  0  0  0  0  0  0  0  0  0  0
   15.3851    1.5717   17.4474 C   0  0  0  0  0  0  0  0  0  0  0  0
   15.0428    0.2802   16.7396 N   0  0  0  0  0  0  0  0  0  0  0  0
   15.3393   -0.1798   15.3195 C   0  0  0  0  0  0  0  0  0  0  0  0
   15.9747    0.3334   14.4683 O   0  0  0  0  0  0  0  0  0  0  0  0
   14.5513   -1.4986   15.0110 C   0  0  0  0  0  0  0  0  0  0  0  0
   15.0108   -2.7403   15.7440 C   0  0  0  0  0  0  0  0  0  0  0  0
   13.8676   -3.1715   16.6390 C   0  0  0  0  0  0  0  0  0  0  0  0
   14.1943   -3.2092   18.0692 N   0  0  0  0  0  0  0  0  0  0  0  0
   15.1108   -4.0993   18.6371 C   0  0  0  0  0  0  0  0  0  0  0  0
   16.0978   -4.7848   17.9094 C   0  0  0  0  0  0  0  0  0  0  0  0
   17.0764   -5.5876   18.5246 C   0  0  0  0  0  0  0  0  0  0  0  0
   17.0624   -5.6895   19.9160 C   0  0  0  0  0  0  0  0  0  0  0  0
   17.8680   -6.3791   20.7825 N   0  0  0  0  0  0  0  0  0  0  0  0
   17.3699   -6.0848   21.9681 C   0  0  0  0  0  0  0  0  0  0  0  0
   18.0388   -6.7152   23.4213 Cl  0  0  0  0  0  0  0  0  0  0  0  0
   16.2878   -5.2451   21.9466 O   0  0  0  0  0  0  0  0  0  0  0  0
   16.0959   -4.9973   20.6203 C   0  0  0  0  0  0  0  0  0  0  0  0
   15.1211   -4.1920   20.0430 C   0  0  0  0  0  0  0  0  0  0  0  0
   12.7931   -2.1150   16.3716 C   0  0  0  0  0  0  0  0  0  0  0  0
   13.1374   -1.3970   15.1929 O   0  0  0  0  0  0  0  0  0  0  0  0
   16.1068   -0.2363   17.7273 C   0  0  0  0  0  0  0  0  0  0  0  0
   15.6509   -0.4111   19.1925 C   0  0  0  0  0  0  0  0  0  0  0  0
   14.9024    1.8637   21.5610 H   0  0  0  0  0  0  0  0  0  0  0  0
   13.9299    0.4553   21.0874 H   0  0  0  0  0  0  0  0  0  0  0  0
   15.5399    0.2410   21.8015 H   0  0  0  0  0  0  0  0  0  0  0  0
   13.7639    1.5313   18.8767 H   0  0  0  0  0  0  0  0  0  0  0  0
   14.9507    2.8146   19.1675 H   0  0  0  0  0  0  0  0  0  0  0  0
   14.8168    2.2942   16.8396 H   0  0  0  0  0  0  0  0  0  0  0  0
   16.4108    1.9458   17.2816 H   0  0  0  0  0  0  0  0  0  0  0  0
   14.6985   -1.6597   13.9345 H   0  0  0  0  0  0  0  0  0  0  0  0
   15.9819   -2.6235   16.2162 H   0  0  0  0  0  0  0  0  0  0  0  0
   15.2027   -3.5276   15.0125 H   0  0  0  0  0  0  0  0  0  0  0  0
   13.4913   -4.1557   16.3346 H   0  0  0  0  0  0  0  0  0  0  0  0
   13.3490   -3.1844   18.6464 H   0  0  0  0  0  0  0  0  0  0  0  0
   16.1347   -4.7399   16.8263 H   0  0  0  0  0  0  0  0  0  0  0  0
   17.8202   -6.1167   17.9387 H   0  0  0  0  0  0  0  0  0  0  0  0
   14.4094   -3.6571   20.6631 H   0  0  0  0  0  0  0  0  0  0  0  0
   11.8076   -2.5700   16.2338 H   0  0  0  0  0  0  0  0  0  0  0  0
   12.7168   -1.3870   17.1832 H   0  0  0  0  0  0  0  0  0  0  0  0
   17.1137    0.2042   17.6052 H   0  0  0  0  0  0  0  0  0  0  0  0
   16.3221   -1.2527   17.4115 H   0  0  0  0  0  0  0  0  0  0  0  0
   16.3786   -1.0280   19.7314 H   0  0  0  0  0  0  0  0  0  0  0  0
   14.6785   -0.9141   19.2227 H   0  0  0  0  0  0  0  0  0  0  0  0
  1  2  1  0
  2  3  1  0
  3  4  1  0
  4  5  1  0
  5  6  1  0
  6  7  2  0
  6  8  1  0
  8  9  1  0
  9 10  1  0
 10 11  1  0
 11 12  1  0
 12 13  2  0
 13 14  1  0
 14 15  2  0
 15 16  1  0
 16 17  2  0
 17 18  1  0
 17 19  1  0
 19 20  1  0
 20 21  2  0
 10 22  1  0
 22 23  1  0
  5 24  1  0
 24 25  1  0
 25  2  1  0
 23  8  1  0
 21 12  1  0
 20 15  1  0
  1 26  1  0
  1 27  1  0
  1 28  1  0
  3 29  1  0
  3 30  1  0
  4 31  1  0
  4 32  1  0
  8 33  1  0
  9 34  1  0
  9 35  1  0
 10 36  1  0
 11 37  1  0
 13 38  1  0
 14 39  1  0
 21 40  1  0
 22 41  1  0
 22 42  1  0
 24 43  1  0
 24 44  1  0
 25 45  1  0
 25 46  1  0
M  END
>  <Energy>  (595) 
191.41819418782677

>  <compound_id>  (595) 
1367

>  <target_id>  (595) 
1

>  <reference_id>  (595) 
61

>  <inspiration_ids>  (595) 
[27, 61]

>  <energy_score>  (595) 
40.86203168689775

>  <distance_score>  (595) 
1.5749412603140343

>  <path>  (595) 
/opt/xchem-fragalysis-2/maxwin/BulkDock/SCRATCH/505732/C1367-P61/C1367-P61.minimised.mol

>  <scratch_subdir>  (595) 
/opt/xchem-fragalysis-2/maxwin/BulkDock/SCRATCH/505732/C1367-P61

>  <fragmenstein_runtime>  (595) 
25.06908106803894

>  <fragmenstein_outcome>  (595) 
too moved

>  <fragmenstein_mode>  (595) 
expansion

>  <fragmenstein_error>  (595) 


$$$$
C1896-P27
     RDKit          3D

 51 53  0  0  0  0  0  0  0  0999 V2000
   13.4183   -3.5826   23.9124 C   0  0  0  0  0  0  0  0  0  0  0  0
   14.3095   -2.6956   24.6697 N   0  0  0  0  0  0  0  0  0  0  0  0
   15.7181   -2.9948   24.3832 C   0  0  0  0  0  0  0  0  0  0  0  0
   16.3445   -2.0795   23.2999 C   0  0  0  0  0  0  0  0  0  0  0  0
   15.4654   -1.8393   22.0799 N   0  0  0  0  0  0  0  0  0  0  0  0
   16.3034   -1.6402   20.8289 C   0  0  0  0  0  0  0  0  0  0  0  0
   16.7456   -0.6555   20.3564 O   0  0  0  0  0  0  0  0  0  0  0  0
   16.4377   -3.0115   20.1155 C   0  0  0  0  0  0  0  0  0  0  0  0
   16.9649   -4.0586   20.9546 O   0  0  0  0  0  0  0  0  0  0  0  0
   16.0167   -5.1277   20.9782 C   0  0  0  0  0  0  0  0  0  0  0  0
   15.2290   -5.0091   19.7015 C   0  0  0  0  0  0  0  0  0  0  0  0
   15.0903   -3.5089   19.5445 C   0  0  0  0  0  0  0  0  0  0  0  0
   14.8105   -3.2063   18.1347 N   0  0  0  0  0  0  0  0  0  0  0  0
   14.2738   -1.8548   17.9612 C   0  0  0  0  0  0  0  0  0  0  0  0
   15.0857   -1.0217   16.9621 C   0  0  0  0  0  0  0  0  0  0  0  0
   14.5097    0.2849   16.6561 N   0  0  0  0  0  0  0  0  0  0  0  0
   13.4030    0.4169   16.0344 C   0  0  0  0  0  0  0  0  0  0  0  0
   12.9561    1.6761   15.8790 O   0  0  0  0  0  0  0  0  0  0  0  0
   12.5121   -0.6069   15.5405 C   0  0  0  0  0  0  0  0  0  0  0  0
   11.0865   -0.4878   15.4867 C   0  0  0  0  0  0  0  0  0  0  0  0
   10.4697   -1.6684   15.1577 C   0  0  0  0  0  0  0  0  0  0  0  0
   11.5860   -2.9188   14.8968 S   0  0  0  0  0  0  0  0  0  0  0  0
   12.8927   -1.8406   15.0500 C   0  0  0  0  0  0  0  0  0  0  0  0
   14.8643   -0.8315   23.0320 C   0  0  0  0  0  0  0  0  0  0  0  0
   14.0670   -1.3017   24.2794 C   0  0  0  0  0  0  0  0  0  0  0  0
   13.5902   -4.6266   24.1977 H   0  0  0  0  0  0  0  0  0  0  0  0
   13.5374   -3.5014   22.8275 H   0  0  0  0  0  0  0  0  0  0  0  0
   12.3730   -3.3665   24.1588 H   0  0  0  0  0  0  0  0  0  0  0  0
   16.2958   -2.8639   25.3066 H   0  0  0  0  0  0  0  0  0  0  0  0
   15.8485   -4.0483   24.1052 H   0  0  0  0  0  0  0  0  0  0  0  0
   16.8815   -1.2017   23.7052 H   0  0  0  0  0  0  0  0  0  0  0  0
   17.2014   -2.6555   22.9218 H   0  0  0  0  0  0  0  0  0  0  0  0
   17.1737   -2.8808   19.3120 H   0  0  0  0  0  0  0  0  0  0  0  0
   15.3755   -5.0045   21.8565 H   0  0  0  0  0  0  0  0  0  0  0  0
   16.5413   -6.0833   21.0629 H   0  0  0  0  0  0  0  0  0  0  0  0
   15.8119   -5.4400   18.8776 H   0  0  0  0  0  0  0  0  0  0  0  0
   14.2667   -5.5234   19.7520 H   0  0  0  0  0  0  0  0  0  0  0  0
   14.2459   -3.1874   20.1686 H   0  0  0  0  0  0  0  0  0  0  0  0
   15.6559   -3.3320   17.5782 H   0  0  0  0  0  0  0  0  0  0  0  0
   13.2367   -1.9689   17.6512 H   0  0  0  0  0  0  0  0  0  0  0  0
   14.2442   -1.2958   18.9040 H   0  0  0  0  0  0  0  0  0  0  0  0
   15.3436   -1.5669   16.0509 H   0  0  0  0  0  0  0  0  0  0  0  0
   16.0625   -0.8252   17.4247 H   0  0  0  0  0  0  0  0  0  0  0  0
   13.6207    2.2534   16.2913 H   0  0  0  0  0  0  0  0  0  0  0  0
   10.5432    0.4218   15.7117 H   0  0  0  0  0  0  0  0  0  0  0  0
    9.4107   -1.8426   15.0275 H   0  0  0  0  0  0  0  0  0  0  0  0
   13.8809   -2.2165   14.8436 H   0  0  0  0  0  0  0  0  0  0  0  0
   14.1084   -0.3639   22.3818 H   0  0  0  0  0  0  0  0  0  0  0  0
   15.5138    0.0427   23.2183 H   0  0  0  0  0  0  0  0  0  0  0  0
   12.9956   -1.1020   24.1533 H   0  0  0  0  0  0  0  0  0  0  0  0
   14.3681   -0.6609   25.1190 H   0  0  0  0  0  0  0  0  0  0  0  0
  1  2  1  0
  2  3  1  0
  3  4  1  0
  4  5  1  0
  5  6  1  0
  6  7  2  0
  6  8  1  0
  8  9  1  0
  9 10  1  0
 10 11  1  0
 11 12  1  0
 12 13  1  0
 13 14  1  0
 14 15  1  0
 15 16  1  0
 16 17  2  3
 17 18  1  0
 17 19  1  0
 19 20  1  0
 20 21  2  0
 21 22  1  0
 22 23  1  0
  5 24  1  0
 24 25  1  0
 25  2  1  0
 12  8  1  0
 23 19  2  0
  1 26  1  0
  1 27  1  0
  1 28  1  0
  3 29  1  0
  3 30  1  0
  4 31  1  0
  4 32  1  0
  8 33  1  0
 10 34  1  0
 10 35  1  0
 11 36  1  0
 11 37  1  0
 12 38  1  0
 13 39  1  0
 14 40  1  0
 14 41  1  0
 15 42  1  0
 15 43  1  0
 18 44  1  0
 20 45  1  0
 21 46  1  0
 23 47  1  0
 24 48  1  0
 24 49  1  0
 25 50  1  0
 25 51  1  0
M  END
>  <Energy>  (596) 
211.80303060183985

>  <compound_id>  (596) 
1896

>  <target_id>  (596) 
1

>  <reference_id>  (596) 
27

>  <inspiration_ids>  (596) 
[27, 66]

>  <energy_score>  (596) 
12.833837299824893

>  <distance_score>  (596) 
2.4006066922977993

>  <path>  (596) 
/opt/xchem-fragalysis-2/maxwin/BulkDock/SCRATCH/505732/C1896-P27/C1896-P27.minimised.mol

>  <scratch_subdir>  (596) 
/opt/xchem-fragalysis-2/maxwin/BulkDock/SCRATCH/505732/C1896-P27

>  <fragmenstein_runtime>  (596) 
2.827702522277832

>  <fragmenstein_outcome>  (596) 
too moved

>  <fragmenstein_mode>  (596) 
expansion

>  <fragmenstein_error>  (596) 


$$$$
C1896-P66
     RDKit          3D

 51 53  0  0  0  0  0  0  0  0999 V2000
   22.4036   -3.1097   21.3356 C   0  0  0  0  0  0  0  0  0  0  0  0
   21.2113   -3.4022   20.5607 N   0  0  0  0  0  0  0  0  0  0  0  0
   20.9090   -4.8219   20.4677 C   0  0  0  0  0  0  0  0  0  0  0  0
   19.9673   -5.1554   19.2791 C   0  0  0  0  0  0  0  0  0  0  0  0
   18.9589   -4.0959   18.8527 N   0  0  0  0  0  0  0  0  0  0  0  0
   17.7597   -4.7238   18.1650 C   0  0  0  0  0  0  0  0  0  0  0  0
   17.5715   -4.9606   17.0255 O   0  0  0  0  0  0  0  0  0  0  0  0
   16.7061   -5.0608   19.2515 C   0  0  0  0  0  0  0  0  0  0  0  0
   17.0376   -4.9849   20.6418 O   0  0  0  0  0  0  0  0  0  0  0  0
   15.8296   -4.6736   21.3526 C   0  0  0  0  0  0  0  0  0  0  0  0
   14.6881   -4.8255   20.3635 C   0  0  0  0  0  0  0  0  0  0  0  0
   15.3355   -4.3612   19.0684 C   0  0  0  0  0  0  0  0  0  0  0  0
   15.1785   -2.9055   19.1002 N   0  0  0  0  0  0  0  0  0  0  0  0
   16.1657   -2.1201   18.3822 C   0  0  0  0  0  0  0  0  0  0  0  0
   15.6309   -0.6907   18.1422 C   0  0  0  0  0  0  0  0  0  0  0  0
   14.4078   -0.8269   17.3888 N   0  0  0  0  0  0  0  0  0  0  0  0
   14.5983   -1.1579   16.1683 C   0  0  0  0  0  0  0  0  0  0  0  0
   15.7589   -1.0437   15.4905 O   0  0  0  0  0  0  0  0  0  0  0  0
   13.5058   -1.7925   15.5184 C   0  0  0  0  0  0  0  0  0  0  0  0
   12.6689   -2.7747   16.1476 C   0  0  0  0  0  0  0  0  0  0  0  0
   11.6637   -3.2004   15.3308 C   0  0  0  0  0  0  0  0  0  0  0  0
   11.8099   -2.4982   13.8099 S   0  0  0  0  0  0  0  0  0  0  0  0
   13.1242   -1.5338   14.2320 C   0  0  0  0  0  0  0  0  0  0  0  0
   20.2174   -3.4973   18.2783 C   0  0  0  0  0  0  0  0  0  0  0  0
   21.2012   -2.7900   19.2430 C   0  0  0  0  0  0  0  0  0  0  0  0
   22.3167   -3.5230   22.3465 H   0  0  0  0  0  0  0  0  0  0  0  0
   22.5369   -2.0278   21.4451 H   0  0  0  0  0  0  0  0  0  0  0  0
   23.3069   -3.5221   20.8723 H   0  0  0  0  0  0  0  0  0  0  0  0
   21.8181   -5.4258   20.3519 H   0  0  0  0  0  0  0  0  0  0  0  0
   20.4323   -5.1365   21.4040 H   0  0  0  0  0  0  0  0  0  0  0  0
   19.3356   -5.9702   19.6682 H   0  0  0  0  0  0  0  0  0  0  0  0
   20.4640   -5.6912   18.4494 H   0  0  0  0  0  0  0  0  0  0  0  0
   16.5417   -6.1377   19.0854 H   0  0  0  0  0  0  0  0  0  0  0  0
   15.7279   -5.3478   22.2078 H   0  0  0  0  0  0  0  0  0  0  0  0
   15.9118   -3.6483   21.7289 H   0  0  0  0  0  0  0  0  0  0  0  0
   14.4228   -5.8837   20.2873 H   0  0  0  0  0  0  0  0  0  0  0  0
   13.7852   -4.2837   20.6643 H   0  0  0  0  0  0  0  0  0  0  0  0
   14.8255   -4.7415   18.1784 H   0  0  0  0  0  0  0  0  0  0  0  0
   14.2512   -2.6332   18.7814 H   0  0  0  0  0  0  0  0  0  0  0  0
   17.0830   -2.0458   18.9744 H   0  0  0  0  0  0  0  0  0  0  0  0
   16.4098   -2.5834   17.4224 H   0  0  0  0  0  0  0  0  0  0  0  0
   16.3821   -0.0651   17.6452 H   0  0  0  0  0  0  0  0  0  0  0  0
   15.4125   -0.2076   19.1018 H   0  0  0  0  0  0  0  0  0  0  0  0
   15.7250   -1.5137   14.6415 H   0  0  0  0  0  0  0  0  0  0  0  0
   12.8006   -3.1443   17.1555 H   0  0  0  0  0  0  0  0  0  0  0  0
   10.8992   -3.9309   15.5369 H   0  0  0  0  0  0  0  0  0  0  0  0
   13.5500   -0.8356   13.5244 H   0  0  0  0  0  0  0  0  0  0  0  0
   19.8008   -2.6792   17.6677 H   0  0  0  0  0  0  0  0  0  0  0  0
   20.7058   -4.0850   17.4802 H   0  0  0  0  0  0  0  0  0  0  0  0
   20.9109   -1.7379   19.3505 H   0  0  0  0  0  0  0  0  0  0  0  0
   22.1952   -2.8032   18.7778 H   0  0  0  0  0  0  0  0  0  0  0  0
  1  2  1  0
  2  3  1  0
  3  4  1  0
  4  5  1  0
  5  6  1  0
  6  7  2  0
  6  8  1  0
  8  9  1  0
  9 10  1  0
 10 11  1  0
 11 12  1  0
 12 13  1  0
 13 14  1  0
 14 15  1  0
 15 16  1  0
 16 17  2  3
 17 18  1  0
 17 19  1  0
 19 20  1  0
 20 21  2  0
 21 22  1  0
 22 23  1  0
  5 24  1  0
 24 25  1  0
 25  2  1  0
 12  8  1  0
 23 19  2  0
  1 26  1  0
  1 27  1  0
  1 28  1  0
  3 29  1  0
  3 30  1  0
  4 31  1  0
  4 32  1  0
  8 33  1  0
 10 34  1  0
 10 35  1  0
 11 36  1  0
 11 37  1  0
 12 38  1  0
 13 39  1  0
 14 40  1  0
 14 41  1  0
 15 42  1  0
 15 43  1  0
 18 44  1  0
 20 45  1  0
 21 46  1  0
 23 47  1  0
 24 48  1  0
 24 49  1  0
 25 50  1  0
 25 51  1  0
M  END
>  <Energy>  (597) 
219.85926809692305

>  <compound_id>  (597) 
1896

>  <target_id>  (597) 
1

>  <reference_id>  (597) 
66

>  <inspiration_ids>  (597) 
[27, 66]

>  <energy_score>  (597) 
20.890074794906695

>  <distance_score>  (597) 
2.601554186592599

>  <path>  (597) 
/opt/xchem-fragalysis-2/maxwin/BulkDock/SCRATCH/505732/C1896-P66/C1896-P66.minimised.mol

>  <scratch_subdir>  (597) 
/opt/xchem-fragalysis-2/maxwin/BulkDock/SCRATCH/505732/C1896-P66

>  <fragmenstein_runtime>  (597) 
2.3048813343048096

>  <fragmenstein_outcome>  (597) 
too moved

>  <fragmenstein_mode>  (597) 
expansion

>  <fragmenstein_error>  (597) 


$$$$
C1900-P27
     RDKit          3D

 52 56  0  0  0  0  0  0  0  0999 V2000
   15.7377   -5.3296   19.4520 C   0  0  0  0  0  0  0  0  0  0  0  0
   15.1747   -4.5542   18.2981 C   0  0  0  0  0  0  0  0  0  0  0  0
   15.9221   -4.3657   17.1366 C   0  0  0  0  0  0  0  0  0  0  0  0
   15.4439   -3.5426   16.1108 C   0  0  0  0  0  0  0  0  0  0  0  0
   14.2154   -2.8545   16.2196 C   0  0  0  0  0  0  0  0  0  0  0  0
   13.9270   -1.6448   15.3109 C   0  0  0  0  0  0  0  0  0  0  0  0
   14.4568   -1.7632   13.8591 C   0  0  0  0  0  0  0  0  0  0  0  0
   13.3610   -1.4299   12.9495 N   0  0  0  0  0  0  0  0  0  0  0  0
   12.5856   -0.4284   13.6787 C   0  0  0  0  0  0  0  0  0  0  0  0
   12.4813   -1.0098   15.1066 C   0  0  0  0  0  0  0  0  0  0  0  0
   11.1440   -1.7900   15.1975 C   0  0  0  0  0  0  0  0  0  0  0  0
    9.9926   -0.8464   15.0671 N   0  0  0  0  0  0  0  0  0  0  0  0
    8.6801   -1.4503   14.9994 C   0  0  0  0  0  0  0  0  0  0  0  0
   10.0195    0.4289   15.7928 C   0  0  0  0  0  0  0  0  0  0  0  0
   11.4145    1.0377   15.9828 C   0  0  0  0  0  0  0  0  0  0  0  0
   12.3766   -0.0288   16.1591 N   0  0  0  0  0  0  0  0  0  0  0  0
   13.5025   -0.0013   16.9224 C   0  0  0  0  0  0  0  0  0  0  0  0
   13.5471    0.2120   18.1154 O   0  0  0  0  0  0  0  0  0  0  0  0
   14.6385   -0.4251   16.0330 C   0  0  0  0  0  0  0  0  0  0  0  0
   15.9312   -0.5718   16.8127 C   0  0  0  0  0  0  0  0  0  0  0  0
   16.3693    0.8669   16.9780 C   0  0  0  0  0  0  0  0  0  0  0  0
   15.9806    1.4770   15.6566 C   0  0  0  0  0  0  0  0  0  0  0  0
   14.8783    0.7131   15.1565 O   0  0  0  0  0  0  0  0  0  0  0  0
   13.4513   -3.1235   17.3595 C   0  0  0  0  0  0  0  0  0  0  0  0
   13.9218   -3.9510   18.3870 C   0  0  0  0  0  0  0  0  0  0  0  0
   16.3687   -4.6794   20.0657 H   0  0  0  0  0  0  0  0  0  0  0  0
   14.9389   -5.7365   20.0805 H   0  0  0  0  0  0  0  0  0  0  0  0
   16.3370   -6.1747   19.0975 H   0  0  0  0  0  0  0  0  0  0  0  0
   16.9057   -4.8202   17.0368 H   0  0  0  0  0  0  0  0  0  0  0  0
   16.1109   -3.3739   15.2664 H   0  0  0  0  0  0  0  0  0  0  0  0
   15.2917   -1.0789   13.6685 H   0  0  0  0  0  0  0  0  0  0  0  0
   14.8548   -2.7346   13.5815 H   0  0  0  0  0  0  0  0  0  0  0  0
   12.7853   -2.2624   12.8079 H   0  0  0  0  0  0  0  0  0  0  0  0
   11.6213   -0.2636   13.1903 H   0  0  0  0  0  0  0  0  0  0  0  0
   13.1010    0.5358   13.6324 H   0  0  0  0  0  0  0  0  0  0  0  0
   11.1013   -2.5561   14.4153 H   0  0  0  0  0  0  0  0  0  0  0  0
   11.0498   -2.3078   16.1495 H   0  0  0  0  0  0  0  0  0  0  0  0
    8.7137   -2.5206   14.7863 H   0  0  0  0  0  0  0  0  0  0  0  0
    8.1155   -1.2994   15.9152 H   0  0  0  0  0  0  0  0  0  0  0  0
    8.0993   -0.9996   14.1962 H   0  0  0  0  0  0  0  0  0  0  0  0
    9.5499    0.3016   16.7683 H   0  0  0  0  0  0  0  0  0  0  0  0
    9.4015    1.1652   15.2732 H   0  0  0  0  0  0  0  0  0  0  0  0
   11.4667    1.7618   16.7997 H   0  0  0  0  0  0  0  0  0  0  0  0
   11.6988    1.6026   15.0876 H   0  0  0  0  0  0  0  0  0  0  0  0
   15.8358   -1.0724   17.7807 H   0  0  0  0  0  0  0  0  0  0  0  0
   16.6883   -1.0927   16.2155 H   0  0  0  0  0  0  0  0  0  0  0  0
   15.8282    1.3522   17.7975 H   0  0  0  0  0  0  0  0  0  0  0  0
   17.4380    0.9687   17.1879 H   0  0  0  0  0  0  0  0  0  0  0  0
   15.6907    2.5276   15.7474 H   0  0  0  0  0  0  0  0  0  0  0  0
   16.7945    1.4022   14.9281 H   0  0  0  0  0  0  0  0  0  0  0  0
   12.5230   -2.6036   17.5472 H   0  0  0  0  0  0  0  0  0  0  0  0
   13.3173   -4.0639   19.2865 H   0  0  0  0  0  0  0  0  0  0  0  0
  1  2  1  0
  2  3  2  0
  3  4  1  0
  4  5  2  0
  5  6  1  0
  6  7  1  0
  7  8  1  0
  8  9  1  0
  9 10  1  0
 10 11  1  0
 11 12  1  0
 12 13  1  0
 12 14  1  0
 14 15  1  0
 15 16  1  0
 16 17  1  0
 17 18  2  0
 17 19  1  0
 19 20  1  0
 20 21  1  0
 21 22  1  0
 22 23  1  0
  5 24  1  0
 24 25  2  0
 25  2  1  0
 10  6  1  0
 23 19  1  0
 19  6  1  0
 16 10  1  0
  1 26  1  0
  1 27  1  0
  1 28  1  0
  3 29  1  0
  4 30  1  0
  7 31  1  0
  7 32  1  0
  8 33  1  0
  9 34  1  0
  9 35  1  0
 11 36  1  0
 11 37  1  0
 13 38  1  0
 13 39  1  0
 13 40  1  0
 14 41  1  0
 14 42  1  0
 15 43  1  0
 15 44  1  0
 20 45  1  0
 20 46  1  0
 21 47  1  0
 21 48  1  0
 22 49  1  0
 22 50  1  0
 24 51  1  0
 25 52  1  0
M  END
>  <Energy>  (598) 
211.99958422885643

>  <compound_id>  (598) 
1900

>  <target_id>  (598) 
1

>  <reference_id>  (598) 
27

>  <inspiration_ids>  (598) 
[27, 81]

>  <energy_score>  (598) 
-18.465342539228686

>  <distance_score>  (598) 
2.8467023345623423

>  <path>  (598) 
/opt/xchem-fragalysis-2/maxwin/BulkDock/SCRATCH/505732/C1900-P27/C1900-P27.minimised.mol

>  <scratch_subdir>  (598) 
/opt/xchem-fragalysis-2/maxwin/BulkDock/SCRATCH/505732/C1900-P27

>  <fragmenstein_runtime>  (598) 
22.836143493652344

>  <fragmenstein_outcome>  (598) 
too moved

>  <fragmenstein_mode>  (598) 
expansion

>  <fragmenstein_error>  (598) 


$$$$
C1900-P81
     RDKit          3D

 52 56  0  0  0  0  0  0  0  0999 V2000
   15.7279   -5.1961   19.3750 C   0  0  0  0  0  0  0  0  0  0  0  0
   15.0997   -4.4892   18.2109 C   0  0  0  0  0  0  0  0  0  0  0  0
   15.7859   -4.3531   17.0048 C   0  0  0  0  0  0  0  0  0  0  0  0
   15.2477   -3.5887   15.9629 C   0  0  0  0  0  0  0  0  0  0  0  0
   14.0282   -2.8933   16.1068 C   0  0  0  0  0  0  0  0  0  0  0  0
   13.7072   -1.7021   15.1808 C   0  0  0  0  0  0  0  0  0  0  0  0
   13.9951   -1.9828   13.7053 C   0  0  0  0  0  0  0  0  0  0  0  0
   13.5381   -0.8298   12.9611 N   0  0  0  0  0  0  0  0  0  0  0  0
   12.3246   -0.3755   13.6232 C   0  0  0  0  0  0  0  0  0  0  0  0
   12.2851   -1.0271   15.0468 C   0  0  0  0  0  0  0  0  0  0  0  0
   10.9646   -1.8399   15.1717 C   0  0  0  0  0  0  0  0  0  0  0  0
    9.7902   -1.0360   15.6819 N   0  0  0  0  0  0  0  0  0  0  0  0
    8.5235   -1.4577   15.0843 C   0  0  0  0  0  0  0  0  0  0  0  0
    9.9374    0.4333   15.5267 C   0  0  0  0  0  0  0  0  0  0  0  0
   11.2839    1.0124   15.9954 C   0  0  0  0  0  0  0  0  0  0  0  0
   12.2526   -0.0619   16.1191 N   0  0  0  0  0  0  0  0  0  0  0  0
   13.4532   -0.0137   16.7701 C   0  0  0  0  0  0  0  0  0  0  0  0
   13.6156    0.2568   17.9423 O   0  0  0  0  0  0  0  0  0  0  0  0
   14.5109   -0.4797   15.7978 C   0  0  0  0  0  0  0  0  0  0  0  0
   15.8537   -0.6456   16.4882 C   0  0  0  0  0  0  0  0  0  0  0  0
   16.3457    0.7809   16.5942 C   0  0  0  0  0  0  0  0  0  0  0  0
   15.8791    1.3746   15.2920 C   0  0  0  0  0  0  0  0  0  0  0  0
   14.7031    0.6573   14.9112 O   0  0  0  0  0  0  0  0  0  0  0  0
   13.3225   -3.1180   17.2905 C   0  0  0  0  0  0  0  0  0  0  0  0
   13.8456   -3.8956   18.3307 C   0  0  0  0  0  0  0  0  0  0  0  0
   16.3664   -4.5031   19.9314 H   0  0  0  0  0  0  0  0  0  0  0  0
   14.9652   -5.5915   20.0538 H   0  0  0  0  0  0  0  0  0  0  0  0
   16.3341   -6.0426   19.0360 H   0  0  0  0  0  0  0  0  0  0  0  0
   16.7693   -4.8021   16.8797 H   0  0  0  0  0  0  0  0  0  0  0  0
   15.8718   -3.4552   15.0808 H   0  0  0  0  0  0  0  0  0  0  0  0
   15.0510   -2.1673   13.4914 H   0  0  0  0  0  0  0  0  0  0  0  0
   13.3998   -2.8274   13.3546 H   0  0  0  0  0  0  0  0  0  0  0  0
   13.4405   -1.0193   11.9720 H   0  0  0  0  0  0  0  0  0  0  0  0
   11.4507   -0.6568   13.0367 H   0  0  0  0  0  0  0  0  0  0  0  0
   12.3500    0.7157   13.6257 H   0  0  0  0  0  0  0  0  0  0  0  0
   10.7517   -2.3438   14.2275 H   0  0  0  0  0  0  0  0  0  0  0  0
   11.0846   -2.6621   15.8777 H   0  0  0  0  0  0  0  0  0  0  0  0
    8.4743   -2.5334   14.9019 H   0  0  0  0  0  0  0  0  0  0  0  0
    7.7045   -1.2085   15.7594 H   0  0  0  0  0  0  0  0  0  0  0  0
    8.3082   -0.9408   14.1506 H   0  0  0  0  0  0  0  0  0  0  0  0
    9.8213    0.6968   14.4682 H   0  0  0  0  0  0  0  0  0  0  0  0
    9.1325    0.9443   16.0687 H   0  0  0  0  0  0  0  0  0  0  0  0
   11.6594    1.7252   15.2520 H   0  0  0  0  0  0  0  0  0  0  0  0
   11.2063    1.6343   16.8832 H   0  0  0  0  0  0  0  0  0  0  0  0
   15.8154   -1.1240   17.4712 H   0  0  0  0  0  0  0  0  0  0  0  0
   16.5514   -1.1982   15.8486 H   0  0  0  0  0  0  0  0  0  0  0  0
   15.8805    1.2980   17.4402 H   0  0  0  0  0  0  0  0  0  0  0  0
   17.4295    0.8528   16.7231 H   0  0  0  0  0  0  0  0  0  0  0  0
   16.6244    1.2367   14.5017 H   0  0  0  0  0  0  0  0  0  0  0  0
   15.6522    2.4413   15.3727 H   0  0  0  0  0  0  0  0  0  0  0  0
   12.4000   -2.5931   17.4901 H   0  0  0  0  0  0  0  0  0  0  0  0
   13.2846   -3.9704   19.2620 H   0  0  0  0  0  0  0  0  0  0  0  0
  1  2  1  0
  2  3  2  0
  3  4  1  0
  4  5  2  0
  5  6  1  0
  6  7  1  0
  7  8  1  0
  8  9  1  0
  9 10  1  0
 10 11  1  0
 11 12  1  0
 12 13  1  0
 12 14  1  0
 14 15  1  0
 15 16  1  0
 16 17  1  0
 17 18  2  0
 17 19  1  0
 19 20  1  0
 20 21  1  0
 21 22  1  0
 22 23  1  0
  5 24  1  0
 24 25  2  0
 25  2  1  0
 10  6  1  0
 23 19  1  0
 19  6  1  0
 16 10  1  0
  1 26  1  0
  1 27  1  0
  1 28  1  0
  3 29  1  0
  4 30  1  0
  7 31  1  0
  7 32  1  0
  8 33  1  0
  9 34  1  0
  9 35  1  0
 11 36  1  0
 11 37  1  0
 13 38  1  0
 13 39  1  0
 13 40  1  0
 14 41  1  0
 14 42  1  0
 15 43  1  0
 15 44  1  0
 20 45  1  0
 20 46  1  0
 21 47  1  0
 21 48  1  0
 22 49  1  0
 22 50  1  0
 24 51  1  0
 25 52  1  0
M  END
>  <Energy>  (599) 
218.20593169183149

>  <compound_id>  (599) 
1900

>  <target_id>  (599) 
1

>  <reference_id>  (599) 
81

>  <inspiration_ids>  (599) 
[27, 81]

>  <energy_score>  (599) 
-12.258995076255701

>  <distance_score>  (599) 
2.814064789708984

>  <path>  (599) 
/opt/xchem-fragalysis-2/maxwin/BulkDock/SCRATCH/505732/C1900-P81/C1900-P81.minimised.mol

>  <scratch_subdir>  (599) 
/opt/xchem-fragalysis-2/maxwin/BulkDock/SCRATCH/505732/C1900-P81

>  <fragmenstein_runtime>  (599) 
23.82293176651001

>  <fragmenstein_outcome>  (599) 
too moved

>  <fragmenstein_mode>  (599) 
expansion

>  <fragmenstein_error>  (599) 


$$$$
C1902-P27
     RDKit          3D

 49 51  0  0  0  0  0  0  0  0999 V2000
   10.2232    0.6786   14.4166 C   0  0  0  0  0  0  0  0  0  0  0  0
   11.6505    0.6216   14.8999 C   0  0  0  0  0  0  0  0  0  0  0  0
   11.9480    1.1238   15.9503 O   0  0  0  0  0  0  0  0  0  0  0  0
   12.4522   -0.0544   13.9363 N   0  0  0  0  0  0  0  0  0  0  0  0
   13.9470   -0.2600   13.8667 C   0  0  0  0  0  0  0  0  0  0  0  0
   14.7131   -0.4170   15.1968 C   0  0  0  0  0  0  0  0  0  0  0  0
   14.3696   -1.6931   15.8353 N   0  0  0  0  0  0  0  0  0  0  0  0
   15.0651   -2.0862   16.9700 C   0  0  0  0  0  0  0  0  0  0  0  0
   14.7513   -3.0181   17.8795 C   0  0  0  0  0  0  0  0  0  0  0  0
   15.5017   -3.2361   19.1115 C   0  0  0  0  0  0  0  0  0  0  0  0
   16.3333   -4.2992   19.2804 C   0  0  0  0  0  0  0  0  0  0  0  0
   16.7301   -5.2139   18.2741 N   0  0  0  0  0  0  0  0  0  0  0  0
   17.1802   -4.7243   16.9638 C   0  0  0  0  0  0  0  0  0  0  0  0
   17.2126   -6.5602   18.5928 C   0  0  0  0  0  0  0  0  0  0  0  0
   16.9182   -4.5160   20.6808 C   0  0  0  0  0  0  0  0  0  0  0  0
   16.0856   -4.0782   21.7598 O   0  0  0  0  0  0  0  0  0  0  0  0
   15.6253   -2.8079   21.5649 C   0  0  0  0  0  0  0  0  0  0  0  0
   15.4309   -2.0258   22.7057 C   0  0  0  0  0  0  0  0  0  0  0  0
   14.9775   -0.7176   22.5722 C   0  0  0  0  0  0  0  0  0  0  0  0
   14.7110   -0.2199   21.3036 C   0  0  0  0  0  0  0  0  0  0  0  0
   14.2789    1.0412   21.1695 F   0  0  0  0  0  0  0  0  0  0  0  0
   14.8763   -1.0090   20.1669 C   0  0  0  0  0  0  0  0  0  0  0  0
   15.3299   -2.3305   20.2830 C   0  0  0  0  0  0  0  0  0  0  0  0
   12.9565   -2.0280   15.6371 C   0  0  0  0  0  0  0  0  0  0  0  0
   12.4810   -1.5600   14.2355 C   0  0  0  0  0  0  0  0  0  0  0  0
   10.1792    0.6522   13.3259 H   0  0  0  0  0  0  0  0  0  0  0  0
    9.7764    1.6201   14.7480 H   0  0  0  0  0  0  0  0  0  0  0  0
    9.6597   -0.1580   14.8369 H   0  0  0  0  0  0  0  0  0  0  0  0
   14.2770    0.7216   13.4923 H   0  0  0  0  0  0  0  0  0  0  0  0
   14.2891   -0.9323   13.0622 H   0  0  0  0  0  0  0  0  0  0  0  0
   14.4823    0.4134   15.8743 H   0  0  0  0  0  0  0  0  0  0  0  0
   15.7891   -0.3853   14.9866 H   0  0  0  0  0  0  0  0  0  0  0  0
   15.9747   -1.5029   17.1187 H   0  0  0  0  0  0  0  0  0  0  0  0
   13.8547   -3.6218   17.7816 H   0  0  0  0  0  0  0  0  0  0  0  0
   17.5738   -3.7042   17.0279 H   0  0  0  0  0  0  0  0  0  0  0  0
   17.9890   -5.3440   16.5596 H   0  0  0  0  0  0  0  0  0  0  0  0
   16.3542   -4.7537   16.2467 H   0  0  0  0  0  0  0  0  0  0  0  0
   18.2197   -6.5193   19.0209 H   0  0  0  0  0  0  0  0  0  0  0  0
   17.2548   -7.1880   17.6960 H   0  0  0  0  0  0  0  0  0  0  0  0
   16.5368   -7.0595   19.2955 H   0  0  0  0  0  0  0  0  0  0  0  0
   17.8974   -4.0242   20.7540 H   0  0  0  0  0  0  0  0  0  0  0  0
   17.0857   -5.5764   20.8831 H   0  0  0  0  0  0  0  0  0  0  0  0
   15.6386   -2.4362   23.6891 H   0  0  0  0  0  0  0  0  0  0  0  0
   14.8187   -0.0900   23.4420 H   0  0  0  0  0  0  0  0  0  0  0  0
   14.6358   -0.5672   19.2063 H   0  0  0  0  0  0  0  0  0  0  0  0
   12.3506   -1.5597   16.4217 H   0  0  0  0  0  0  0  0  0  0  0  0
   12.8082   -3.1115   15.7078 H   0  0  0  0  0  0  0  0  0  0  0  0
   12.8799   -2.1718   13.4089 H   0  0  0  0  0  0  0  0  0  0  0  0
   11.4169   -1.8381   14.2193 H   0  0  0  0  0  0  0  0  0  0  0  0
  1  2  1  0
  2  3  2  0
  2  4  1  0
  4  5  1  0
  5  6  1  0
  6  7  1  0
  7  8  1  0
  8  9  2  3
  9 10  1  0
 10 11  2  0
 11 12  1  0
 12 13  1  0
 12 14  1  0
 11 15  1  0
 15 16  1  0
 16 17  1  0
 17 18  2  0
 18 19  1  0
 19 20  2  0
 20 21  1  0
 20 22  1  0
 22 23  2  0
  7 24  1  0
 24 25  1  0
 25  4  1  0
 23 10  1  0
 23 17  1  0
  1 26  1  0
  1 27  1  0
  1 28  1  0
  5 29  1  0
  5 30  1  0
  6 31  1  0
  6 32  1  0
  8 33  1  0
  9 34  1  0
 13 35  1  0
 13 36  1  0
 13 37  1  0
 14 38  1  0
 14 39  1  0
 14 40  1  0
 15 41  1  0
 15 42  1  0
 18 43  1  0
 19 44  1  0
 22 45  1  0
 24 46  1  0
 24 47  1  0
 25 48  1  0
 25 49  1  0
M  END
>  <Energy>  (600) 
200.78965415912009

>  <compound_id>  (600) 
1902

>  <target_id>  (600) 
1

>  <reference_id>  (600) 
27

>  <inspiration_ids>  (600) 
[27, 86]

>  <energy_score>  (600) 
0.1680084421082313

>  <distance_score>  (600) 
3.1856632936396476

>  <path>  (600) 
/opt/xchem-fragalysis-2/maxwin/BulkDock/SCRATCH/505732/C1902-P27/C1902-P27.minimised.mol

>  <scratch_subdir>  (600) 
/opt/xchem-fragalysis-2/maxwin/BulkDock/SCRATCH/505732/C1902-P27

>  <fragmenstein_runtime>  (600) 
17.31160068511963

>  <fragmenstein_outcome>  (600) 
too moved

>  <fragmenstein_mode>  (600) 
expansion

>  <fragmenstein_error>  (600) 


$$$$
C1902-P86
     RDKit          3D

 49 51  0  0  0  0  0  0  0  0999 V2000
   10.5140    0.9806   13.9180 C   0  0  0  0  0  0  0  0  0  0  0  0
   11.6914    0.7628   14.8379 C   0  0  0  0  0  0  0  0  0  0  0  0
   11.6148    1.0745   15.9969 O   0  0  0  0  0  0  0  0  0  0  0  0
   12.7812    0.2278   14.0921 N   0  0  0  0  0  0  0  0  0  0  0  0
   14.2197   -0.0148   14.4839 C   0  0  0  0  0  0  0  0  0  0  0  0
   14.5287   -0.4458   15.9347 C   0  0  0  0  0  0  0  0  0  0  0  0
   14.0471   -1.8103   16.1596 N   0  0  0  0  0  0  0  0  0  0  0  0
   14.4140   -2.5537   17.2733 C   0  0  0  0  0  0  0  0  0  0  0  0
   15.4402   -2.3491   18.1120 C   0  0  0  0  0  0  0  0  0  0  0  0
   15.6704   -3.1407   19.3151 C   0  0  0  0  0  0  0  0  0  0  0  0
   16.1593   -4.4114   19.3022 C   0  0  0  0  0  0  0  0  0  0  0  0
   16.6980   -5.0963   18.1796 N   0  0  0  0  0  0  0  0  0  0  0  0
   17.4259   -4.3822   17.1216 C   0  0  0  0  0  0  0  0  0  0  0  0
   16.9777   -6.5348   18.1966 C   0  0  0  0  0  0  0  0  0  0  0  0
   16.1906   -5.1649   20.6411 C   0  0  0  0  0  0  0  0  0  0  0  0
   15.2318   -4.7514   21.6192 O   0  0  0  0  0  0  0  0  0  0  0  0
   15.1676   -3.3952   21.7450 C   0  0  0  0  0  0  0  0  0  0  0  0
   14.8502   -2.8915   23.0085 C   0  0  0  0  0  0  0  0  0  0  0  0
   14.7702   -1.5153   23.2015 C   0  0  0  0  0  0  0  0  0  0  0  0
   14.9849   -0.6667   22.1236 C   0  0  0  0  0  0  0  0  0  0  0  0
   14.9106    0.6595   22.3026 F   0  0  0  0  0  0  0  0  0  0  0  0
   15.2764   -1.1681   20.8571 C   0  0  0  0  0  0  0  0  0  0  0  0
   15.3688   -2.5524   20.6488 C   0  0  0  0  0  0  0  0  0  0  0  0
   12.7558   -2.0271   15.5040 C   0  0  0  0  0  0  0  0  0  0  0  0
   12.7431   -1.3084   14.1281 C   0  0  0  0  0  0  0  0  0  0  0  0
    9.6927    0.3330   14.2339 H   0  0  0  0  0  0  0  0  0  0  0  0
   10.7655    0.7648   12.8766 H   0  0  0  0  0  0  0  0  0  0  0  0
   10.2046    2.0276   13.9824 H   0  0  0  0  0  0  0  0  0  0  0  0
   14.6263    1.0071   14.4274 H   0  0  0  0  0  0  0  0  0  0  0  0
   14.8201   -0.5380   13.7210 H   0  0  0  0  0  0  0  0  0  0  0  0
   14.0628    0.2395   16.6521 H   0  0  0  0  0  0  0  0  0  0  0  0
   15.6145   -0.3932   16.0735 H   0  0  0  0  0  0  0  0  0  0  0  0
   13.7463   -3.3962   17.4588 H   0  0  0  0  0  0  0  0  0  0  0  0
   16.1178   -1.5151   17.9703 H   0  0  0  0  0  0  0  0  0  0  0  0
   18.2377   -4.9932   16.7094 H   0  0  0  0  0  0  0  0  0  0  0  0
   16.7500   -4.1381   16.2966 H   0  0  0  0  0  0  0  0  0  0  0  0
   17.8966   -3.4676   17.4977 H   0  0  0  0  0  0  0  0  0  0  0  0
   17.8566   -6.7478   18.8139 H   0  0  0  0  0  0  0  0  0  0  0  0
   17.1702   -6.9125   17.1858 H   0  0  0  0  0  0  0  0  0  0  0  0
   16.1229   -7.1015   18.5768 H   0  0  0  0  0  0  0  0  0  0  0  0
   17.1965   -5.1010   21.0763 H   0  0  0  0  0  0  0  0  0  0  0  0
   15.9745   -6.2257   20.4956 H   0  0  0  0  0  0  0  0  0  0  0  0
   14.6659   -3.5714   23.8346 H   0  0  0  0  0  0  0  0  0  0  0  0
   14.5210   -1.1027   24.1727 H   0  0  0  0  0  0  0  0  0  0  0  0
   15.4229   -0.4587   20.0504 H   0  0  0  0  0  0  0  0  0  0  0  0
   11.9468   -1.6568   16.1437 H   0  0  0  0  0  0  0  0  0  0  0  0
   12.5870   -3.0984   15.3450 H   0  0  0  0  0  0  0  0  0  0  0  0
   13.4010   -1.7844   13.3812 H   0  0  0  0  0  0  0  0  0  0  0  0
   11.7484   -1.5384   13.7237 H   0  0  0  0  0  0  0  0  0  0  0  0
  1  2  1  0
  2  3  2  0
  2  4  1  0
  4  5  1  0
  5  6  1  0
  6  7  1  0
  7  8  1  0
  8  9  2  3
  9 10  1  0
 10 11  2  0
 11 12  1  0
 12 13  1  0
 12 14  1  0
 11 15  1  0
 15 16  1  0
 16 17  1  0
 17 18  2  0
 18 19  1  0
 19 20  2  0
 20 21  1  0
 20 22  1  0
 22 23  2  0
  7 24  1  0
 24 25  1  0
 25  4  1  0
 23 10  1  0
 23 17  1  0
  1 26  1  0
  1 27  1  0
  1 28  1  0
  5 29  1  0
  5 30  1  0
  6 31  1  0
  6 32  1  0
  8 33  1  0
  9 34  1  0
 13 35  1  0
 13 36  1  0
 13 37  1  0
 14 38  1  0
 14 39  1  0
 14 40  1  0
 15 41  1  0
 15 42  1  0
 18 43  1  0
 19 44  1  0
 22 45  1  0
 24 46  1  0
 24 47  1  0
 25 48  1  0
 25 49  1  0
M  END
>  <Energy>  (601) 
199.19273996778534

>  <compound_id>  (601) 
1902

>  <target_id>  (601) 
1

>  <reference_id>  (601) 
86

>  <inspiration_ids>  (601) 
[27, 86]

>  <energy_score>  (601) 
-1.4289057492231336

>  <distance_score>  (601) 
3.1023407810477863

>  <path>  (601) 
/opt/xchem-fragalysis-2/maxwin/BulkDock/SCRATCH/505732/C1902-P86/C1902-P86.minimised.mol

>  <scratch_subdir>  (601) 
/opt/xchem-fragalysis-2/maxwin/BulkDock/SCRATCH/505732/C1902-P86

>  <fragmenstein_runtime>  (601) 
17.186051845550537

>  <fragmenstein_outcome>  (601) 
too moved

>  <fragmenstein_mode>  (601) 
expansion

>  <fragmenstein_error>  (601) 


$$$$
C1545-P27
     RDKit          3D

 49 50  0  0  0  0  0  0  0  0999 V2000
   13.4160   -4.3197   20.1299 C   0  0  0  0  0  0  0  0  0  0  0  0
   13.8437   -3.3926   19.0169 C   0  0  0  0  0  0  0  0  0  0  0  0
   15.0387   -2.1795   19.5660 S   0  0  0  0  0  0  0  0  0  0  0  0
   14.3900   -1.3316   20.5383 O   0  0  0  0  0  0  0  0  0  0  0  0
   15.7193   -1.5898   18.4368 O   0  0  0  0  0  0  0  0  0  0  0  0
   16.1338   -3.1382   20.4608 N   0  0  0  0  0  0  0  0  0  0  0  0
   17.2866   -3.5583   19.7254 C   0  0  0  0  0  0  0  0  0  0  0  0
   18.5094   -2.9317   19.9453 C   0  0  0  0  0  0  0  0  0  0  0  0
   19.5428   -3.0923   19.0198 C   0  0  0  0  0  0  0  0  0  0  0  0
   19.3141   -3.7816   17.8273 C   0  0  0  0  0  0  0  0  0  0  0  0
   18.0766   -4.3913   17.5998 C   0  0  0  0  0  0  0  0  0  0  0  0
   17.6207   -4.7497   16.2062 C   0  0  0  0  0  0  0  0  0  0  0  0
   16.8319   -3.5856   15.6394 C   0  0  0  0  0  0  0  0  0  0  0  0
   15.5004   -3.4629   15.7479 C   0  0  0  0  0  0  0  0  0  0  0  0
   14.6614   -2.4410   15.3421 N   0  0  0  0  0  0  0  0  0  0  0  0
   13.2163   -2.4347   15.5457 C   0  0  0  0  0  0  0  0  0  0  0  0
   12.5616   -1.7973   14.2859 C   0  0  0  0  0  0  0  0  0  0  0  0
   12.6893   -0.2820   14.0770 N   0  0  0  0  0  0  0  0  0  0  0  0
   12.1443    0.4126   15.1928 C   0  0  0  0  0  0  0  0  0  0  0  0
   10.6704    0.6623   14.9521 C   0  0  0  0  0  0  0  0  0  0  0  0
   12.6646    0.7939   16.2059 O   0  0  0  0  0  0  0  0  0  0  0  0
   14.1256   -0.6672   13.7505 C   0  0  0  0  0  0  0  0  0  0  0  0
   15.0936   -1.1270   14.8750 C   0  0  0  0  0  0  0  0  0  0  0  0
   17.1287   -4.3895   18.6202 C   0  0  0  0  0  0  0  0  0  0  0  0
   15.9925   -5.0867   18.4654 F   0  0  0  0  0  0  0  0  0  0  0  0
   12.7111   -5.0656   19.7583 H   0  0  0  0  0  0  0  0  0  0  0  0
   14.2596   -4.8764   20.5482 H   0  0  0  0  0  0  0  0  0  0  0  0
   12.9421   -3.7715   20.9488 H   0  0  0  0  0  0  0  0  0  0  0  0
   12.9961   -2.8631   18.5939 H   0  0  0  0  0  0  0  0  0  0  0  0
   14.2635   -3.9587   18.1954 H   0  0  0  0  0  0  0  0  0  0  0  0
   16.2946   -2.7047   21.3707 H   0  0  0  0  0  0  0  0  0  0  0  0
   18.6529   -2.2707   20.7950 H   0  0  0  0  0  0  0  0  0  0  0  0
   20.4929   -2.5867   19.1782 H   0  0  0  0  0  0  0  0  0  0  0  0
   20.0734   -3.7656   17.0486 H   0  0  0  0  0  0  0  0  0  0  0  0
   17.0197   -5.6652   16.2303 H   0  0  0  0  0  0  0  0  0  0  0  0
   18.4782   -4.9644   15.5580 H   0  0  0  0  0  0  0  0  0  0  0  0
   17.4160   -2.7945   15.1821 H   0  0  0  0  0  0  0  0  0  0  0  0
   14.9518   -4.2841   16.2029 H   0  0  0  0  0  0  0  0  0  0  0  0
   12.9669   -1.8684   16.4488 H   0  0  0  0  0  0  0  0  0  0  0  0
   12.8248   -3.4488   15.6821 H   0  0  0  0  0  0  0  0  0  0  0  0
   11.4822   -1.9330   14.4557 H   0  0  0  0  0  0  0  0  0  0  0  0
   12.7205   -2.3793   13.3628 H   0  0  0  0  0  0  0  0  0  0  0  0
   10.4025    0.5258   13.9005 H   0  0  0  0  0  0  0  0  0  0  0  0
   10.0839   -0.0271   15.5655 H   0  0  0  0  0  0  0  0  0  0  0  0
   10.4333    1.6933   15.2303 H   0  0  0  0  0  0  0  0  0  0  0  0
   14.5349    0.3078   13.4434 H   0  0  0  0  0  0  0  0  0  0  0  0
   14.2158   -1.2591   12.8240 H   0  0  0  0  0  0  0  0  0  0  0  0
   16.1058   -1.1569   14.4592 H   0  0  0  0  0  0  0  0  0  0  0  0
   15.0924   -0.4130   15.7062 H   0  0  0  0  0  0  0  0  0  0  0  0
  1  2  1  0
  2  3  1  0
  3  4  2  0
  3  5  2  0
  3  6  1  0
  6  7  1  0
  7  8  2  0
  8  9  1  0
  9 10  2  0
 10 11  1  0
 11 12  1  0
 12 13  1  0
 13 14  2  3
 14 15  1  0
 15 16  1  0
 16 17  1  0
 17 18  1  0
 18 19  1  0
 19 20  1  0
 19 21  2  0
 18 22  1  0
 22 23  1  0
 11 24  2  0
 24 25  1  0
 24  7  1  0
 23 15  1  0
  1 26  1  0
  1 27  1  0
  1 28  1  0
  2 29  1  0
  2 30  1  0
  6 31  1  0
  8 32  1  0
  9 33  1  0
 10 34  1  0
 12 35  1  0
 12 36  1  0
 13 37  1  0
 14 38  1  0
 16 39  1  0
 16 40  1  0
 17 41  1  0
 17 42  1  0
 20 43  1  0
 20 44  1  0
 20 45  1  0
 22 46  1  0
 22 47  1  0
 23 48  1  0
 23 49  1  0
M  END
>  <Energy>  (602) 
110.67208425785863

>  <compound_id>  (602) 
1545

>  <target_id>  (602) 
1

>  <reference_id>  (602) 
27

>  <inspiration_ids>  (602) 
[27, 98]

>  <energy_score>  (602) 
2.8969159549071435

>  <distance_score>  (602) 
3.6756723595330962

>  <path>  (602) 
/opt/xchem-fragalysis-2/maxwin/BulkDock/SCRATCH/505732/C1545-P27/C1545-P27.minimised.mol

>  <scratch_subdir>  (602) 
/opt/xchem-fragalysis-2/maxwin/BulkDock/SCRATCH/505732/C1545-P27

>  <fragmenstein_runtime>  (602) 
10.717353820800781

>  <fragmenstein_outcome>  (602) 
too moved

>  <fragmenstein_mode>  (602) 
expansion

>  <fragmenstein_error>  (602) 


$$$$
C1545-P98
     RDKit          3D

 49 50  0  0  0  0  0  0  0  0999 V2000
   16.2297    1.9417   17.6913 C   0  0  0  0  0  0  0  0  0  0  0  0
   16.7561    1.0925   18.8349 C   0  0  0  0  0  0  0  0  0  0  0  0
   15.9724   -0.4976   18.8378 S   0  0  0  0  0  0  0  0  0  0  0  0
   16.4220   -1.2029   17.6572 O   0  0  0  0  0  0  0  0  0  0  0  0
   14.5690   -0.2820   19.1122 O   0  0  0  0  0  0  0  0  0  0  0  0
   16.6631   -1.2290   20.2433 N   0  0  0  0  0  0  0  0  0  0  0  0
   16.6302   -2.6736   20.1220 C   0  0  0  0  0  0  0  0  0  0  0  0
   17.7159   -3.3644   19.5910 C   0  0  0  0  0  0  0  0  0  0  0  0
   17.5297   -4.6551   19.0850 C   0  0  0  0  0  0  0  0  0  0  0  0
   16.2409   -5.1911   18.9898 C   0  0  0  0  0  0  0  0  0  0  0  0
   15.1509   -4.4677   19.4877 C   0  0  0  0  0  0  0  0  0  0  0  0
   13.7390   -4.6468   18.9658 C   0  0  0  0  0  0  0  0  0  0  0  0
   13.5155   -3.6314   17.8806 C   0  0  0  0  0  0  0  0  0  0  0  0
   12.8810   -3.7192   16.7067 C   0  0  0  0  0  0  0  0  0  0  0  0
   12.9163   -2.7272   15.7350 N   0  0  0  0  0  0  0  0  0  0  0  0
   11.8684   -2.5100   14.7478 C   0  0  0  0  0  0  0  0  0  0  0  0
   12.4352   -1.6275   13.5994 C   0  0  0  0  0  0  0  0  0  0  0  0
   12.8141   -0.1717   13.8986 N   0  0  0  0  0  0  0  0  0  0  0  0
   11.7105    0.5126   14.4889 C   0  0  0  0  0  0  0  0  0  0  0  0
   10.8978    1.1763   13.4036 C   0  0  0  0  0  0  0  0  0  0  0  0
   11.4037    0.6532   15.6442 O   0  0  0  0  0  0  0  0  0  0  0  0
   14.0023   -0.8377   14.5260 C   0  0  0  0  0  0  0  0  0  0  0  0
   13.7985   -1.5604   15.8645 C   0  0  0  0  0  0  0  0  0  0  0  0
   15.3882   -3.2917   20.1927 C   0  0  0  0  0  0  0  0  0  0  0  0
   14.3513   -2.6035   20.6889 F   0  0  0  0  0  0  0  0  0  0  0  0
   15.1496    2.0986   17.7775 H   0  0  0  0  0  0  0  0  0  0  0  0
   16.7170    2.9213   17.6919 H   0  0  0  0  0  0  0  0  0  0  0  0
   16.4219    1.4662   16.7240 H   0  0  0  0  0  0  0  0  0  0  0  0
   17.8338    0.9363   18.7338 H   0  0  0  0  0  0  0  0  0  0  0  0
   16.5440    1.5733   19.7942 H   0  0  0  0  0  0  0  0  0  0  0  0
   16.0448   -0.9529   21.0172 H   0  0  0  0  0  0  0  0  0  0  0  0
   18.6856   -2.8832   19.5073 H   0  0  0  0  0  0  0  0  0  0  0  0
   18.3714   -5.1920   18.6532 H   0  0  0  0  0  0  0  0  0  0  0  0
   16.0929   -6.1144   18.4368 H   0  0  0  0  0  0  0  0  0  0  0  0
   13.0260   -4.5164   19.7853 H   0  0  0  0  0  0  0  0  0  0  0  0
   13.6193   -5.6396   18.5625 H   0  0  0  0  0  0  0  0  0  0  0  0
   13.9802   -2.6757   18.0949 H   0  0  0  0  0  0  0  0  0  0  0  0
   12.3118   -4.6026   16.4351 H   0  0  0  0  0  0  0  0  0  0  0  0
   11.0048   -2.0303   15.2216 H   0  0  0  0  0  0  0  0  0  0  0  0
   11.5259   -3.4609   14.3283 H   0  0  0  0  0  0  0  0  0  0  0  0
   11.6051   -1.5056   12.9074 H   0  0  0  0  0  0  0  0  0  0  0  0
   13.1588   -2.1642   12.9617 H   0  0  0  0  0  0  0  0  0  0  0  0
   10.8575    2.2521   13.5953 H   0  0  0  0  0  0  0  0  0  0  0  0
    9.8897    0.7604   13.4253 H   0  0  0  0  0  0  0  0  0  0  0  0
   11.3270    1.0205   12.4102 H   0  0  0  0  0  0  0  0  0  0  0  0
   14.6239    0.0323   14.7904 H   0  0  0  0  0  0  0  0  0  0  0  0
   14.6595   -1.3702   13.8179 H   0  0  0  0  0  0  0  0  0  0  0  0
   14.7862   -1.9035   16.1722 H   0  0  0  0  0  0  0  0  0  0  0  0
   13.4004   -0.8701   16.6162 H   0  0  0  0  0  0  0  0  0  0  0  0
  1  2  1  0
  2  3  1  0
  3  4  2  0
  3  5  2  0
  3  6  1  0
  6  7  1  0
  7  8  2  0
  8  9  1  0
  9 10  2  0
 10 11  1  0
 11 12  1  0
 12 13  1  0
 13 14  2  3
 14 15  1  0
 15 16  1  0
 16 17  1  0
 17 18  1  0
 18 19  1  0
 19 20  1  0
 19 21  2  0
 18 22  1  0
 22 23  1  0
 11 24  2  0
 24 25  1  0
 24  7  1  0
 23 15  1  0
  1 26  1  0
  1 27  1  0
  1 28  1  0
  2 29  1  0
  2 30  1  0
  6 31  1  0
  8 32  1  0
  9 33  1  0
 10 34  1  0
 12 35  1  0
 12 36  1  0
 13 37  1  0
 14 38  1  0
 16 39  1  0
 16 40  1  0
 17 41  1  0
 17 42  1  0
 20 43  1  0
 20 44  1  0
 20 45  1  0
 22 46  1  0
 22 47  1  0
 23 48  1  0
 23 49  1  0
M  END
>  <Energy>  (603) 
116.61925350835541

>  <compound_id>  (603) 
1545

>  <target_id>  (603) 
1

>  <reference_id>  (603) 
98

>  <inspiration_ids>  (603) 
[27, 98]

>  <energy_score>  (603) 
8.844085205406543

>  <distance_score>  (603) 
3.1902424544203303

>  <path>  (603) 
/opt/xchem-fragalysis-2/maxwin/BulkDock/SCRATCH/505732/C1545-P98/C1545-P98.minimised.mol

>  <scratch_subdir>  (603) 
/opt/xchem-fragalysis-2/maxwin/BulkDock/SCRATCH/505732/C1545-P98

>  <fragmenstein_runtime>  (603) 
10.66464614868164

>  <fragmenstein_outcome>  (603) 
too moved

>  <fragmenstein_mode>  (603) 
expansion

>  <fragmenstein_error>  (603) 


$$$$
C1904-P27
     RDKit          3D

 39 40  0  0  0  0  0  0  0  0999 V2000
   13.6634    7.5007   16.2284 C   0  0  0  0  0  0  0  0  0  0  0  0
   12.3292    6.8206   16.0051 C   0  0  0  0  0  0  0  0  0  0  0  0
   11.3505    7.4137   15.7370 O   0  0  0  0  0  0  0  0  0  0  0  0
   12.5503    5.3363   16.2102 N   0  0  0  0  0  0  0  0  0  0  0  0
   11.5656    4.1878   16.2334 C   0  0  0  0  0  0  0  0  0  0  0  0
   12.0881    2.7918   16.6324 C   0  0  0  0  0  0  0  0  0  0  0  0
   12.9352    2.2664   15.5649 N   0  0  0  0  0  0  0  0  0  0  0  0
   13.3447    0.9449   15.5950 C   0  0  0  0  0  0  0  0  0  0  0  0
   14.3812    0.4022   14.9426 C   0  0  0  0  0  0  0  0  0  0  0  0
   14.8071   -1.0360   14.9811 C   0  0  0  0  0  0  0  0  0  0  0  0
   13.8104   -2.0021   15.5058 C   0  0  0  0  0  0  0  0  0  0  0  0
   14.1277   -2.8063   16.6066 C   0  0  0  0  0  0  0  0  0  0  0  0
   13.1995   -3.7185   17.0644 C   0  0  0  0  0  0  0  0  0  0  0  0
   11.9667   -3.7990   16.4268 C   0  0  0  0  0  0  0  0  0  0  0  0
   11.6325   -2.9644   15.3689 C   0  0  0  0  0  0  0  0  0  0  0  0
   10.3783   -3.0042   14.8581 O   0  0  0  0  0  0  0  0  0  0  0  0
   12.5637   -2.0912   14.8730 C   0  0  0  0  0  0  0  0  0  0  0  0
   13.7502    3.3389   14.9878 C   0  0  0  0  0  0  0  0  0  0  0  0
   12.9258    4.6460   14.8977 C   0  0  0  0  0  0  0  0  0  0  0  0
   13.5195    8.3515   16.9005 H   0  0  0  0  0  0  0  0  0  0  0  0
   14.0503    7.8518   15.2681 H   0  0  0  0  0  0  0  0  0  0  0  0
   14.3957    6.8278   16.6836 H   0  0  0  0  0  0  0  0  0  0  0  0
   10.9248    4.4900   17.0761 H   0  0  0  0  0  0  0  0  0  0  0  0
   10.8165    4.1838   15.4216 H   0  0  0  0  0  0  0  0  0  0  0  0
   11.2241    2.1361   16.7748 H   0  0  0  0  0  0  0  0  0  0  0  0
   12.6550    2.8471   17.5692 H   0  0  0  0  0  0  0  0  0  0  0  0
   12.7294    0.3358   16.2555 H   0  0  0  0  0  0  0  0  0  0  0  0
   15.0027    1.0263   14.3084 H   0  0  0  0  0  0  0  0  0  0  0  0
   15.0638   -1.3451   13.9587 H   0  0  0  0  0  0  0  0  0  0  0  0
   15.7442   -1.0921   15.5493 H   0  0  0  0  0  0  0  0  0  0  0  0
   15.0935   -2.7279   17.0985 H   0  0  0  0  0  0  0  0  0  0  0  0
   13.4133   -4.3552   17.9168 H   0  0  0  0  0  0  0  0  0  0  0  0
   11.2601   -4.5309   16.7796 H   0  0  0  0  0  0  0  0  0  0  0  0
   10.2959   -2.4302   14.0658 H   0  0  0  0  0  0  0  0  0  0  0  0
   12.3305   -1.4566   14.0230 H   0  0  0  0  0  0  0  0  0  0  0  0
   14.0742    3.0732   13.9753 H   0  0  0  0  0  0  0  0  0  0  0  0
   14.6417    3.5033   15.6055 H   0  0  0  0  0  0  0  0  0  0  0  0
   13.6333    5.3582   14.4429 H   0  0  0  0  0  0  0  0  0  0  0  0
   12.1335    4.6365   14.1276 H   0  0  0  0  0  0  0  0  0  0  0  0
  1  2  1  0
  2  3  2  0
  2  4  1  0
  4  5  1  0
  5  6  1  0
  6  7  1  0
  7  8  1  0
  8  9  2  3
  9 10  1  0
 10 11  1  0
 11 12  2  0
 12 13  1  0
 13 14  2  0
 14 15  1  0
 15 16  1  0
 15 17  2  0
  7 18  1  0
 18 19  1  0
 19  4  1  0
 17 11  1  0
  1 20  1  0
  1 21  1  0
  1 22  1  0
  5 23  1  0
  5 24  1  0
  6 25  1  0
  6 26  1  0
  8 27  1  0
  9 28  1  0
 10 29  1  0
 10 30  1  0
 12 31  1  0
 13 32  1  0
 14 33  1  0
 16 34  1  0
 17 35  1  0
 18 36  1  0
 18 37  1  0
 19 38  1  0
 19 39  1  0
M  END
>  <Energy>  (604) 
145.52819328879309

>  <compound_id>  (604) 
1904

>  <target_id>  (604) 
1

>  <reference_id>  (604) 
27

>  <inspiration_ids>  (604) 
[27, 103]

>  <energy_score>  (604) 
48.29430508758372

>  <distance_score>  (604) 
6.011296922900459

>  <path>  (604) 
/opt/xchem-fragalysis-2/maxwin/BulkDock/SCRATCH/505732/C1904-P27/C1904-P27.minimised.mol

>  <scratch_subdir>  (604) 
/opt/xchem-fragalysis-2/maxwin/BulkDock/SCRATCH/505732/C1904-P27

>  <fragmenstein_runtime>  (604) 
5.970540285110474

>  <fragmenstein_outcome>  (604) 
too moved

>  <fragmenstein_mode>  (604) 
expansion

>  <fragmenstein_error>  (604) 


$$$$
C1904-P103
     RDKit          3D

 39 40  0  0  0  0  0  0  0  0999 V2000
   19.4498    2.6891   18.4979 C   0  0  0  0  0  0  0  0  0  0  0  0
   18.0300    3.1394   18.7704 C   0  0  0  0  0  0  0  0  0  0  0  0
   17.7772    4.1631   19.2893 O   0  0  0  0  0  0  0  0  0  0  0  0
   17.1140    2.0397   18.2739 N   0  0  0  0  0  0  0  0  0  0  0  0
   15.6113    1.8810   18.3880 C   0  0  0  0  0  0  0  0  0  0  0  0
   14.9951    0.5438   17.9251 C   0  0  0  0  0  0  0  0  0  0  0  0
   15.1038    0.4328   16.4748 N   0  0  0  0  0  0  0  0  0  0  0  0
   14.3584   -0.4397   15.7156 C   0  0  0  0  0  0  0  0  0  0  0  0
   13.4539   -1.3264   16.1393 C   0  0  0  0  0  0  0  0  0  0  0  0
   12.3754   -1.7971   15.2136 C   0  0  0  0  0  0  0  0  0  0  0  0
   11.2038   -0.8442   15.3363 C   0  0  0  0  0  0  0  0  0  0  0  0
    9.9227   -1.3722   15.3396 C   0  0  0  0  0  0  0  0  0  0  0  0
    8.8449   -0.5722   15.6799 C   0  0  0  0  0  0  0  0  0  0  0  0
    9.0364    0.7779   15.9685 C   0  0  0  0  0  0  0  0  0  0  0  0
   10.2793    1.3465   15.8123 C   0  0  0  0  0  0  0  0  0  0  0  0
   10.3974    2.6834   16.0272 O   0  0  0  0  0  0  0  0  0  0  0  0
   11.3607    0.5515   15.4842 C   0  0  0  0  0  0  0  0  0  0  0  0
   16.3470    1.0176   15.9778 C   0  0  0  0  0  0  0  0  0  0  0  0
   16.7171    2.2669   16.8120 C   0  0  0  0  0  0  0  0  0  0  0  0
   19.4942    1.6520   18.1538 H   0  0  0  0  0  0  0  0  0  0  0  0
   20.0295    2.7676   19.4219 H   0  0  0  0  0  0  0  0  0  0  0  0
   19.8871    3.3352   17.7321 H   0  0  0  0  0  0  0  0  0  0  0  0
   15.4913    1.8637   19.4835 H   0  0  0  0  0  0  0  0  0  0  0  0
   15.0124    2.7769   18.1462 H   0  0  0  0  0  0  0  0  0  0  0  0
   13.9457    0.5221   18.2396 H   0  0  0  0  0  0  0  0  0  0  0  0
   15.5154   -0.2954   18.4021 H   0  0  0  0  0  0  0  0  0  0  0  0
   14.4622   -0.2447   14.6475 H   0  0  0  0  0  0  0  0  0  0  0  0
   13.3224   -1.5395   17.1940 H   0  0  0  0  0  0  0  0  0  0  0  0
   12.7082   -1.8239   14.1692 H   0  0  0  0  0  0  0  0  0  0  0  0
   12.0915   -2.8181   15.4949 H   0  0  0  0  0  0  0  0  0  0  0  0
    9.7649   -2.4133   15.0694 H   0  0  0  0  0  0  0  0  0  0  0  0
    7.8542   -1.0189   15.7070 H   0  0  0  0  0  0  0  0  0  0  0  0
    8.2131    1.4145   16.2632 H   0  0  0  0  0  0  0  0  0  0  0  0
   11.2972    2.8597   16.3569 H   0  0  0  0  0  0  0  0  0  0  0  0
   12.3338    1.0194   15.3870 H   0  0  0  0  0  0  0  0  0  0  0  0
   16.2415    1.3117   14.9269 H   0  0  0  0  0  0  0  0  0  0  0  0
   17.1516    0.2750   16.0431 H   0  0  0  0  0  0  0  0  0  0  0  0
   17.6608    2.6047   16.3536 H   0  0  0  0  0  0  0  0  0  0  0  0
   16.0809    3.1505   16.6248 H   0  0  0  0  0  0  0  0  0  0  0  0
  1  2  1  0
  2  3  2  0
  2  4  1  0
  4  5  1  0
  5  6  1  0
  6  7  1  0
  7  8  1  0
  8  9  2  3
  9 10  1  0
 10 11  1  0
 11 12  2  0
 12 13  1  0
 13 14  2  0
 14 15  1  0
 15 16  1  0
 15 17  2  0
  7 18  1  0
 18 19  1  0
 19  4  1  0
 17 11  1  0
  1 20  1  0
  1 21  1  0
  1 22  1  0
  5 23  1  0
  5 24  1  0
  6 25  1  0
  6 26  1  0
  8 27  1  0
  9 28  1  0
 10 29  1  0
 10 30  1  0
 12 31  1  0
 13 32  1  0
 14 33  1  0
 16 34  1  0
 17 35  1  0
 18 36  1  0
 18 37  1  0
 19 38  1  0
 19 39  1  0
M  END
>  <Energy>  (605) 
153.98617658339887

>  <compound_id>  (605) 
1904

>  <target_id>  (605) 
1

>  <reference_id>  (605) 
103

>  <inspiration_ids>  (605) 
[27, 103]

>  <energy_score>  (605) 
56.75228838219073

>  <distance_score>  (605) 
5.013081895327729

>  <path>  (605) 
/opt/xchem-fragalysis-2/maxwin/BulkDock/SCRATCH/505732/C1904-P103/C1904-P103.minimised.mol

>  <scratch_subdir>  (605) 
/opt/xchem-fragalysis-2/maxwin/BulkDock/SCRATCH/505732/C1904-P103

>  <fragmenstein_runtime>  (605) 
3.8346197605133057

>  <fragmenstein_outcome>  (605) 
too moved

>  <fragmenstein_mode>  (605) 
expansion

>  <fragmenstein_error>  (605) 


$$$$
C1905-P27
     RDKit          3D

 41 42  0  0  0  0  0  0  0  0999 V2000
    9.6150    0.2507   15.3414 C   0  0  0  0  0  0  0  0  0  0  0  0
   10.5399    1.4334   15.1456 C   0  0  0  0  0  0  0  0  0  0  0  0
   10.2144    2.4571   14.6736 O   0  0  0  0  0  0  0  0  0  0  0  0
   11.8545    1.0098   15.7385 N   0  0  0  0  0  0  0  0  0  0  0  0
   13.1154    1.7975   15.9988 C   0  0  0  0  0  0  0  0  0  0  0  0
   14.0953    1.0717   16.9474 C   0  0  0  0  0  0  0  0  0  0  0  0
   14.1975   -0.3348   16.5387 N   0  0  0  0  0  0  0  0  0  0  0  0
   14.0663   -1.3597   17.4464 C   0  0  0  0  0  0  0  0  0  0  0  0
   13.8418   -2.6624   17.2457 C   0  0  0  0  0  0  0  0  0  0  0  0
   13.7644   -3.6453   18.3713 C   0  0  0  0  0  0  0  0  0  0  0  0
   15.0686   -4.3212   18.7287 C   0  0  0  0  0  0  0  0  0  0  0  0
   16.1200   -4.4844   17.8143 C   0  0  0  0  0  0  0  0  0  0  0  0
   17.2859   -5.1570   18.1826 C   0  0  0  0  0  0  0  0  0  0  0  0
   17.4130   -5.6845   19.4667 C   0  0  0  0  0  0  0  0  0  0  0  0
   16.3722   -5.5441   20.3895 C   0  0  0  0  0  0  0  0  0  0  0  0
   16.5486   -6.1281   21.7408 C   0  0  0  0  0  0  0  0  0  0  0  0
   17.5629   -6.6484   22.1677 O   0  0  0  0  0  0  0  0  0  0  0  0
   15.4384   -6.0453   22.4949 O   0  0  0  0  0  0  0  0  0  0  0  0
   15.2049   -4.8645   20.0182 C   0  0  0  0  0  0  0  0  0  0  0  0
   13.9701   -0.4862   15.1117 C   0  0  0  0  0  0  0  0  0  0  0  0
   12.7702    0.3947   14.6745 C   0  0  0  0  0  0  0  0  0  0  0  0
   10.1333   -0.6242   15.7448 H   0  0  0  0  0  0  0  0  0  0  0  0
    9.1873   -0.0313   14.3793 H   0  0  0  0  0  0  0  0  0  0  0  0
    8.8306    0.5335   16.0476 H   0  0  0  0  0  0  0  0  0  0  0  0
   13.5840    2.3350   15.1551 H   0  0  0  0  0  0  0  0  0  0  0  0
   12.7389    2.6546   16.5799 H   0  0  0  0  0  0  0  0  0  0  0  0
   13.7237    1.1501   17.9766 H   0  0  0  0  0  0  0  0  0  0  0  0
   15.0798    1.5506   16.9130 H   0  0  0  0  0  0  0  0  0  0  0  0
   14.2133   -1.0157   18.4714 H   0  0  0  0  0  0  0  0  0  0  0  0
   13.7046   -3.0679   16.2510 H   0  0  0  0  0  0  0  0  0  0  0  0
   13.3738   -3.1478   19.2668 H   0  0  0  0  0  0  0  0  0  0  0  0
   13.0384   -4.4213   18.1031 H   0  0  0  0  0  0  0  0  0  0  0  0
   16.0464   -4.0885   16.8032 H   0  0  0  0  0  0  0  0  0  0  0  0
   18.0962   -5.2707   17.4666 H   0  0  0  0  0  0  0  0  0  0  0  0
   18.3254   -6.2087   19.7442 H   0  0  0  0  0  0  0  0  0  0  0  0
   15.7026   -6.4494   23.3471 H   0  0  0  0  0  0  0  0  0  0  0  0
   14.3909   -4.7525   20.7340 H   0  0  0  0  0  0  0  0  0  0  0  0
   13.7996   -1.5216   14.8008 H   0  0  0  0  0  0  0  0  0  0  0  0
   14.8656   -0.1572   14.5694 H   0  0  0  0  0  0  0  0  0  0  0  0
   12.0987   -0.3167   14.1651 H   0  0  0  0  0  0  0  0  0  0  0  0
   12.9902    1.0713   13.8286 H   0  0  0  0  0  0  0  0  0  0  0  0
  1  2  1  0
  2  3  2  0
  2  4  1  0
  4  5  1  0
  5  6  1  0
  6  7  1  0
  7  8  1  0
  8  9  2  3
  9 10  1  0
 10 11  1  0
 11 12  2  0
 12 13  1  0
 13 14  2  0
 14 15  1  0
 15 16  1  0
 16 17  2  0
 16 18  1  0
 15 19  2  0
  7 20  1  0
 20 21  1  0
 21  4  1  0
 19 11  1  0
  1 22  1  0
  1 23  1  0
  1 24  1  0
  5 25  1  0
  5 26  1  0
  6 27  1  0
  6 28  1  0
  8 29  1  0
  9 30  1  0
 10 31  1  0
 10 32  1  0
 12 33  1  0
 13 34  1  0
 14 35  1  0
 18 36  1  0
 19 37  1  0
 20 38  1  0
 20 39  1  0
 21 40  1  0
 21 41  1  0
M  END
>  <Energy>  (606) 
160.93393716188518

>  <compound_id>  (606) 
1905

>  <target_id>  (606) 
1

>  <reference_id>  (606) 
27

>  <inspiration_ids>  (606) 
[27, 106]

>  <energy_score>  (606) 
39.28595237330836

>  <distance_score>  (606) 
1.602881465572418

>  <path>  (606) 
/opt/xchem-fragalysis-2/maxwin/BulkDock/SCRATCH/505732/C1905-P27/C1905-P27.minimised.mol

>  <scratch_subdir>  (606) 
/opt/xchem-fragalysis-2/maxwin/BulkDock/SCRATCH/505732/C1905-P27

>  <fragmenstein_runtime>  (606) 
6.793606281280518

>  <fragmenstein_outcome>  (606) 
too moved

>  <fragmenstein_mode>  (606) 
expansion

>  <fragmenstein_error>  (606) 


$$$$
C1905-P106
     RDKit          3D

 41 42  0  0  0  0  0  0  0  0999 V2000
   17.3890    3.3298   17.0932 C   0  0  0  0  0  0  0  0  0  0  0  0
   15.9331    3.5227   17.4611 C   0  0  0  0  0  0  0  0  0  0  0  0
   15.5426    4.4759   18.0269 O   0  0  0  0  0  0  0  0  0  0  0  0
   15.1827    2.3091   16.9518 N   0  0  0  0  0  0  0  0  0  0  0  0
   13.6996    2.0066   16.9262 C   0  0  0  0  0  0  0  0  0  0  0  0
   13.2592    0.7382   16.1684 C   0  0  0  0  0  0  0  0  0  0  0  0
   13.6465   -0.4582   16.9332 N   0  0  0  0  0  0  0  0  0  0  0  0
   13.2479   -1.7100   16.4860 C   0  0  0  0  0  0  0  0  0  0  0  0
   13.3556   -2.9259   17.0401 C   0  0  0  0  0  0  0  0  0  0  0  0
   13.8289   -3.2790   18.4192 C   0  0  0  0  0  0  0  0  0  0  0  0
   15.0620   -4.1440   18.5213 C   0  0  0  0  0  0  0  0  0  0  0  0
   16.0747   -4.1528   17.5552 C   0  0  0  0  0  0  0  0  0  0  0  0
   17.2138   -4.9414   17.7324 C   0  0  0  0  0  0  0  0  0  0  0  0
   17.3594   -5.7220   18.8800 C   0  0  0  0  0  0  0  0  0  0  0  0
   16.3634   -5.7197   19.8590 C   0  0  0  0  0  0  0  0  0  0  0  0
   16.5562   -6.5644   21.0613 C   0  0  0  0  0  0  0  0  0  0  0  0
   17.5740   -7.1621   21.3587 O   0  0  0  0  0  0  0  0  0  0  0  0
   15.4551   -6.6360   21.8300 O   0  0  0  0  0  0  0  0  0  0  0  0
   15.2261   -4.9224   19.6832 C   0  0  0  0  0  0  0  0  0  0  0  0
   14.9825   -0.2509   17.5081 C   0  0  0  0  0  0  0  0  0  0  0  0
   15.1237    1.2070   18.0152 C   0  0  0  0  0  0  0  0  0  0  0  0
   17.9731    3.2009   18.0084 H   0  0  0  0  0  0  0  0  0  0  0  0
   17.7379    4.2147   16.5536 H   0  0  0  0  0  0  0  0  0  0  0  0
   17.5397    2.4570   16.4516 H   0  0  0  0  0  0  0  0  0  0  0  0
   13.1477    2.2145   17.8591 H   0  0  0  0  0  0  0  0  0  0  0  0
   13.3331    2.8346   16.2983 H   0  0  0  0  0  0  0  0  0  0  0  0
   13.7256    0.7151   15.1752 H   0  0  0  0  0  0  0  0  0  0  0  0
   12.1712    0.7565   16.0345 H   0  0  0  0  0  0  0  0  0  0  0  0
   12.7541   -1.6563   15.5131 H   0  0  0  0  0  0  0  0  0  0  0  0
   12.9602   -3.7684   16.4728 H   0  0  0  0  0  0  0  0  0  0  0  0
   13.9788   -2.3994   19.0480 H   0  0  0  0  0  0  0  0  0  0  0  0
   13.0091   -3.8355   18.8853 H   0  0  0  0  0  0  0  0  0  0  0  0
   15.9897   -3.5444   16.6567 H   0  0  0  0  0  0  0  0  0  0  0  0
   17.9926   -4.9442   16.9733 H   0  0  0  0  0  0  0  0  0  0  0  0
   18.2509   -6.3337   19.0047 H   0  0  0  0  0  0  0  0  0  0  0  0
   15.7264   -7.2163   22.5713 H   0  0  0  0  0  0  0  0  0  0  0  0
   14.4554   -4.9006   20.4538 H   0  0  0  0  0  0  0  0  0  0  0  0
   15.7463   -0.4486   16.7450 H   0  0  0  0  0  0  0  0  0  0  0  0
   15.1751   -0.9151   18.3514 H   0  0  0  0  0  0  0  0  0  0  0  0
   16.1394    1.2287   18.4425 H   0  0  0  0  0  0  0  0  0  0  0  0
   14.5248    1.4432   18.9129 H   0  0  0  0  0  0  0  0  0  0  0  0
  1  2  1  0
  2  3  2  0
  2  4  1  0
  4  5  1  0
  5  6  1  0
  6  7  1  0
  7  8  1  0
  8  9  2  3
  9 10  1  0
 10 11  1  0
 11 12  2  0
 12 13  1  0
 13 14  2  0
 14 15  1  0
 15 16  1  0
 16 17  2  0
 16 18  1  0
 15 19  2  0
  7 20  1  0
 20 21  1  0
 21  4  1  0
 19 11  1  0
  1 22  1  0
  1 23  1  0
  1 24  1  0
  5 25  1  0
  5 26  1  0
  6 27  1  0
  6 28  1  0
  8 29  1  0
  9 30  1  0
 10 31  1  0
 10 32  1  0
 12 33  1  0
 13 34  1  0
 14 35  1  0
 18 36  1  0
 19 37  1  0
 20 38  1  0
 20 39  1  0
 21 40  1  0
 21 41  1  0
M  END
>  <Energy>  (607) 
152.92990724312233

>  <compound_id>  (607) 
1905

>  <target_id>  (607) 
1

>  <reference_id>  (607) 
106

>  <inspiration_ids>  (607) 
[27, 106]

>  <energy_score>  (607) 
31.281922454545338

>  <distance_score>  (607) 
3.2489689378396682

>  <path>  (607) 
/opt/xchem-fragalysis-2/maxwin/BulkDock/SCRATCH/505732/C1905-P106/C1905-P106.minimised.mol

>  <scratch_subdir>  (607) 
/opt/xchem-fragalysis-2/maxwin/BulkDock/SCRATCH/505732/C1905-P106

>  <fragmenstein_runtime>  (607) 
7.937547445297241

>  <fragmenstein_outcome>  (607) 
too moved

>  <fragmenstein_mode>  (607) 
expansion

>  <fragmenstein_error>  (607) 


$$$$
C1866-P27
     RDKit          3D

 60 62  0  0  0  0  0  0  0  0999 V2000
   13.7203    3.4377   18.6353 C   0  0  0  0  0  0  0  0  0  0  0  0
   13.1589    3.1902   17.2420 C   0  0  0  0  0  0  0  0  0  0  0  0
   14.0107    2.2297   16.4157 C   0  0  0  0  0  0  0  0  0  0  0  0
   13.9132    0.7807   16.8385 C   0  0  0  0  0  0  0  0  0  0  0  0
   14.8632    0.3008   17.7491 C   0  0  0  0  0  0  0  0  0  0  0  0
   14.8826   -1.0363   18.1550 C   0  0  0  0  0  0  0  0  0  0  0  0
   13.9669   -1.9542   17.6613 C   0  0  0  0  0  0  0  0  0  0  0  0
   13.8914   -3.2787   18.1392 N   0  0  0  0  0  0  0  0  0  0  0  0
   14.9919   -4.0352   18.6081 C   0  0  0  0  0  0  0  0  0  0  0  0
   16.1769   -4.1507   17.8735 C   0  0  0  0  0  0  0  0  0  0  0  0
   17.2027   -4.9875   18.3195 C   0  0  0  0  0  0  0  0  0  0  0  0
   17.0429   -5.7285   19.4916 C   0  0  0  0  0  0  0  0  0  0  0  0
   15.8526   -5.6470   20.2132 C   0  0  0  0  0  0  0  0  0  0  0  0
   14.8354   -4.8181   19.7577 C   0  0  0  0  0  0  0  0  0  0  0  0
   13.6595   -4.7854   20.4571 O   0  0  0  0  0  0  0  0  0  0  0  0
   12.9861   -1.4711   16.8046 C   0  0  0  0  0  0  0  0  0  0  0  0
   12.9577   -0.1272   16.3504 C   0  0  0  0  0  0  0  0  0  0  0  0
   11.8984    0.2389   15.3311 C   0  0  0  0  0  0  0  0  0  0  0  0
   11.6694   -0.8713   14.3491 C   0  0  0  0  0  0  0  0  0  0  0  0
   12.5321   -1.4388   13.4951 C   0  0  0  0  0  0  0  0  0  0  0  0
   13.8103   -1.1191   13.0891 N   0  0  0  0  0  0  0  0  0  0  0  0
   14.5701    0.0315   13.5383 C   0  0  0  0  0  0  0  0  0  0  0  0
   15.6531    0.3840   12.4818 C   0  0  0  0  0  0  0  0  0  0  0  0
   16.8218   -0.5902   12.3137 N   0  0  0  0  0  0  0  0  0  0  0  0
   18.0508    0.1154   11.7802 C   0  0  0  0  0  0  0  0  0  0  0  0
   18.8441    0.5885   12.9800 C   0  0  0  0  0  0  0  0  0  0  0  0
   18.4047    0.2943   10.6740 O   0  0  0  0  0  0  0  0  0  0  0  0
   15.7358   -1.3641   11.5910 C   0  0  0  0  0  0  0  0  0  0  0  0
   14.6992   -2.0990   12.4619 C   0  0  0  0  0  0  0  0  0  0  0  0
   13.6573    2.5408   19.2578 H   0  0  0  0  0  0  0  0  0  0  0  0
   14.7675    3.7533   18.5875 H   0  0  0  0  0  0  0  0  0  0  0  0
   13.1565    4.2317   19.1347 H   0  0  0  0  0  0  0  0  0  0  0  0
   12.1289    2.8257   17.3074 H   0  0  0  0  0  0  0  0  0  0  0  0
   13.1220    4.1536   16.7190 H   0  0  0  0  0  0  0  0  0  0  0  0
   13.7339    2.3319   15.3631 H   0  0  0  0  0  0  0  0  0  0  0  0
   15.0618    2.5473   16.4461 H   0  0  0  0  0  0  0  0  0  0  0  0
   15.6135    0.9732   18.1628 H   0  0  0  0  0  0  0  0  0  0  0  0
   15.6261   -1.3435   18.8875 H   0  0  0  0  0  0  0  0  0  0  0  0
   13.3501   -3.8584   17.4969 H   0  0  0  0  0  0  0  0  0  0  0  0
   16.3075   -3.5918   16.9501 H   0  0  0  0  0  0  0  0  0  0  0  0
   18.1263   -5.0636   17.7511 H   0  0  0  0  0  0  0  0  0  0  0  0
   17.8419   -6.3796   19.8373 H   0  0  0  0  0  0  0  0  0  0  0  0
   15.7149   -6.2327   21.1169 H   0  0  0  0  0  0  0  0  0  0  0  0
   13.1306   -4.0626   20.0585 H   0  0  0  0  0  0  0  0  0  0  0  0
   12.2272   -2.1694   16.4574 H   0  0  0  0  0  0  0  0  0  0  0  0
   10.9645    0.4214   15.8779 H   0  0  0  0  0  0  0  0  0  0  0  0
   12.1060    1.1631   14.7892 H   0  0  0  0  0  0  0  0  0  0  0  0
   10.6978   -1.3510   14.4499 H   0  0  0  0  0  0  0  0  0  0  0  0
   12.1755   -2.3410   12.9962 H   0  0  0  0  0  0  0  0  0  0  0  0
   13.9311    0.9102   13.6341 H   0  0  0  0  0  0  0  0  0  0  0  0
   15.0644   -0.1865   14.4890 H   0  0  0  0  0  0  0  0  0  0  0  0
   15.2558    0.8093   11.5425 H   0  0  0  0  0  0  0  0  0  0  0  0
   16.1407    1.2745   12.9116 H   0  0  0  0  0  0  0  0  0  0  0  0
   19.8758    0.2393   12.8823 H   0  0  0  0  0  0  0  0  0  0  0  0
   18.8259    1.6812   13.0103 H   0  0  0  0  0  0  0  0  0  0  0  0
   18.4397    0.2018   13.9197 H   0  0  0  0  0  0  0  0  0  0  0  0
   15.3301   -0.8877   10.6813 H   0  0  0  0  0  0  0  0  0  0  0  0
   16.3301   -2.1744   11.1386 H   0  0  0  0  0  0  0  0  0  0  0  0
   14.1393   -2.8004   11.8370 H   0  0  0  0  0  0  0  0  0  0  0  0
   15.2183   -2.6614   13.2450 H   0  0  0  0  0  0  0  0  0  0  0  0
  1  2  1  0
  2  3  1  0
  3  4  1  0
  4  5  2  0
  5  6  1  0
  6  7  2  0
  7  8  1  0
  8  9  1  0
  9 10  2  0
 10 11  1  0
 11 12  2  0
 12 13  1  0
 13 14  2  0
 14 15  1  0
  7 16  1  0
 16 17  2  0
 17 18  1  0
 18 19  1  0
 19 20  2  3
 20 21  1  0
 21 22  1  0
 22 23  1  0
 23 24  1  0
 24 25  1  0
 25 26  1  0
 25 27  2  0
 24 28  1  0
 28 29  1  0
 17  4  1  0
 29 21  1  0
 14  9  1  0
  1 30  1  0
  1 31  1  0
  1 32  1  0
  2 33  1  0
  2 34  1  0
  3 35  1  0
  3 36  1  0
  5 37  1  0
  6 38  1  0
  8 39  1  0
 10 40  1  0
 11 41  1  0
 12 42  1  0
 13 43  1  0
 15 44  1  0
 16 45  1  0
 18 46  1  0
 18 47  1  0
 19 48  1  0
 20 49  1  0
 22 50  1  0
 22 51  1  0
 23 52  1  0
 23 53  1  0
 26 54  1  0
 26 55  1  0
 26 56  1  0
 28 57  1  0
 28 58  1  0
 29 59  1  0
 29 60  1  0
M  END
>  <Energy>  (608) 
179.76195488031769

>  <compound_id>  (608) 
1866

>  <target_id>  (608) 
1

>  <reference_id>  (608) 
27

>  <inspiration_ids>  (608) 
[27, 114]

>  <energy_score>  (608) 
25.066682489133314

>  <distance_score>  (608) 
3.0161980629865375

>  <path>  (608) 
/opt/xchem-fragalysis-2/maxwin/BulkDock/SCRATCH/505732/C1866-P27/C1866-P27.minimised.mol

>  <scratch_subdir>  (608) 
/opt/xchem-fragalysis-2/maxwin/BulkDock/SCRATCH/505732/C1866-P27

>  <fragmenstein_runtime>  (608) 
9.058133840560913

>  <fragmenstein_outcome>  (608) 
too moved

>  <fragmenstein_mode>  (608) 
expansion

>  <fragmenstein_error>  (608) 


$$$$
C1866-P114
     RDKit          3D

 60 62  0  0  0  0  0  0  0  0999 V2000
   13.8129    4.7020   17.2608 C   0  0  0  0  0  0  0  0  0  0  0  0
   14.0922    3.2372   17.5645 C   0  0  0  0  0  0  0  0  0  0  0  0
   13.3581    2.3135   16.5835 C   0  0  0  0  0  0  0  0  0  0  0  0
   13.4566    0.8184   16.8325 C   0  0  0  0  0  0  0  0  0  0  0  0
   14.3935    0.2922   17.7259 C   0  0  0  0  0  0  0  0  0  0  0  0
   14.4856   -1.0815   17.9617 C   0  0  0  0  0  0  0  0  0  0  0  0
   13.6664   -1.9956   17.3040 C   0  0  0  0  0  0  0  0  0  0  0  0
   13.6602   -3.3662   17.6660 N   0  0  0  0  0  0  0  0  0  0  0  0
   14.7732   -4.0368   18.2370 C   0  0  0  0  0  0  0  0  0  0  0  0
   15.9872   -4.1427   17.5475 C   0  0  0  0  0  0  0  0  0  0  0  0
   17.0551   -4.8531   18.1029 C   0  0  0  0  0  0  0  0  0  0  0  0
   16.9157   -5.4707   19.3466 C   0  0  0  0  0  0  0  0  0  0  0  0
   15.7056   -5.3883   20.0338 C   0  0  0  0  0  0  0  0  0  0  0  0
   14.6438   -4.6871   19.4712 C   0  0  0  0  0  0  0  0  0  0  0  0
   13.4613   -4.6639   20.1576 O   0  0  0  0  0  0  0  0  0  0  0  0
   12.7172   -1.4847   16.4153 C   0  0  0  0  0  0  0  0  0  0  0  0
   12.6154   -0.0940   16.1512 C   0  0  0  0  0  0  0  0  0  0  0  0
   11.7039    0.3563   15.0168 C   0  0  0  0  0  0  0  0  0  0  0  0
   12.5304    0.5383   13.7746 C   0  0  0  0  0  0  0  0  0  0  0  0
   13.1163   -0.5241   13.2165 C   0  0  0  0  0  0  0  0  0  0  0  0
   14.1110   -0.6098   12.2703 N   0  0  0  0  0  0  0  0  0  0  0  0
   14.8830   -1.8475   12.2264 C   0  0  0  0  0  0  0  0  0  0  0  0
   15.8058   -1.8284   10.9798 C   0  0  0  0  0  0  0  0  0  0  0  0
   16.9915   -0.8539   10.9405 N   0  0  0  0  0  0  0  0  0  0  0  0
   17.8916   -1.0357   12.1476 C   0  0  0  0  0  0  0  0  0  0  0  0
   18.9232   -2.0781   11.7742 C   0  0  0  0  0  0  0  0  0  0  0  0
   17.8620   -0.5190   13.2030 O   0  0  0  0  0  0  0  0  0  0  0  0
   15.8508    0.1184   10.6953 C   0  0  0  0  0  0  0  0  0  0  0  0
   14.9426    0.5274   11.8836 C   0  0  0  0  0  0  0  0  0  0  0  0
   14.3527    5.3438   17.9643 H   0  0  0  0  0  0  0  0  0  0  0  0
   14.1353    4.9609   16.2471 H   0  0  0  0  0  0  0  0  0  0  0  0
   12.7447    4.9242   17.3501 H   0  0  0  0  0  0  0  0  0  0  0  0
   15.1739    3.0694   17.5065 H   0  0  0  0  0  0  0  0  0  0  0  0
   13.7794    3.0228   18.5935 H   0  0  0  0  0  0  0  0  0  0  0  0
   12.2980    2.5927   16.6138 H   0  0  0  0  0  0  0  0  0  0  0  0
   13.7316    2.5174   15.5731 H   0  0  0  0  0  0  0  0  0  0  0  0
   15.0746    0.9366   18.2759 H   0  0  0  0  0  0  0  0  0  0  0  0
   15.2069   -1.4225   18.7021 H   0  0  0  0  0  0  0  0  0  0  0  0
   13.3009   -3.9244   16.8914 H   0  0  0  0  0  0  0  0  0  0  0  0
   16.1106   -3.6631   16.5792 H   0  0  0  0  0  0  0  0  0  0  0  0
   17.9984   -4.9195   17.5666 H   0  0  0  0  0  0  0  0  0  0  0  0
   17.7483   -6.0195   19.7792 H   0  0  0  0  0  0  0  0  0  0  0  0
   15.5862   -5.8726   20.9984 H   0  0  0  0  0  0  0  0  0  0  0  0
   12.8496   -4.0896   19.6491 H   0  0  0  0  0  0  0  0  0  0  0  0
   12.0549   -2.1725   15.8928 H   0  0  0  0  0  0  0  0  0  0  0  0
   10.9085   -0.3804   14.8459 H   0  0  0  0  0  0  0  0  0  0  0  0
   11.1844    1.2855   15.2711 H   0  0  0  0  0  0  0  0  0  0  0  0
   12.7765    1.5453   13.4621 H   0  0  0  0  0  0  0  0  0  0  0  0
   12.8366   -1.5129   13.5824 H   0  0  0  0  0  0  0  0  0  0  0  0
   15.4694   -1.9689   13.1447 H   0  0  0  0  0  0  0  0  0  0  0  0
   14.2119   -2.7073   12.1368 H   0  0  0  0  0  0  0  0  0  0  0  0
   16.3136   -2.8048   11.0213 H   0  0  0  0  0  0  0  0  0  0  0  0
   15.2603   -1.9148   10.0240 H   0  0  0  0  0  0  0  0  0  0  0  0
   18.6560   -3.0292   12.2422 H   0  0  0  0  0  0  0  0  0  0  0  0
   18.9892   -2.2157   10.6912 H   0  0  0  0  0  0  0  0  0  0  0  0
   19.9034   -1.7535   12.1347 H   0  0  0  0  0  0  0  0  0  0  0  0
   15.3165   -0.0271    9.7415 H   0  0  0  0  0  0  0  0  0  0  0  0
   16.4167    1.0403   10.4873 H   0  0  0  0  0  0  0  0  0  0  0  0
   15.5505    0.8612   12.7329 H   0  0  0  0  0  0  0  0  0  0  0  0
   14.3112    1.3654   11.5662 H   0  0  0  0  0  0  0  0  0  0  0  0
  1  2  1  0
  2  3  1  0
  3  4  1  0
  4  5  2  0
  5  6  1  0
  6  7  2  0
  7  8  1  0
  8  9  1  0
  9 10  2  0
 10 11  1  0
 11 12  2  0
 12 13  1  0
 13 14  2  0
 14 15  1  0
  7 16  1  0
 16 17  2  0
 17 18  1  0
 18 19  1  0
 19 20  2  3
 20 21  1  0
 21 22  1  0
 22 23  1  0
 23 24  1  0
 24 25  1  0
 25 26  1  0
 25 27  2  0
 24 28  1  0
 28 29  1  0
 17  4  1  0
 29 21  1  0
 14  9  1  0
  1 30  1  0
  1 31  1  0
  1 32  1  0
  2 33  1  0
  2 34  1  0
  3 35  1  0
  3 36  1  0
  5 37  1  0
  6 38  1  0
  8 39  1  0
 10 40  1  0
 11 41  1  0
 12 42  1  0
 13 43  1  0
 15 44  1  0
 16 45  1  0
 18 46  1  0
 18 47  1  0
 19 48  1  0
 20 49  1  0
 22 50  1  0
 22 51  1  0
 23 52  1  0
 23 53  1  0
 26 54  1  0
 26 55  1  0
 26 56  1  0
 28 57  1  0
 28 58  1  0
 29 59  1  0
 29 60  1  0
M  END
>  <Energy>  (609) 
178.87716440073083

>  <compound_id>  (609) 
1866

>  <target_id>  (609) 
1

>  <reference_id>  (609) 
114

>  <inspiration_ids>  (609) 
[27, 114]

>  <energy_score>  (609) 
24.181892009548335

>  <distance_score>  (609) 
3.4613381413896995

>  <path>  (609) 
/opt/xchem-fragalysis-2/maxwin/BulkDock/SCRATCH/505732/C1866-P114/C1866-P114.minimised.mol

>  <scratch_subdir>  (609) 
/opt/xchem-fragalysis-2/maxwin/BulkDock/SCRATCH/505732/C1866-P114

>  <fragmenstein_runtime>  (609) 
10.594082593917847

>  <fragmenstein_outcome>  (609) 
too moved

>  <fragmenstein_mode>  (609) 
expansion

>  <fragmenstein_error>  (609) 


$$$$
C1907-P27
     RDKit          3D

 49 50  0  0  0  0  0  0  0  0999 V2000
   14.8650   -1.5796   19.1647 C   0  0  0  0  0  0  0  0  0  0  0  0
   14.1828   -2.8659   19.1431 N   0  0  0  0  0  0  0  0  0  0  0  0
   15.1152   -3.9243   19.0823 C   0  0  0  0  0  0  0  0  0  0  0  0
   15.6816   -4.3011   17.8449 C   0  0  0  0  0  0  0  0  0  0  0  0
   15.1073   -3.7993   16.5363 C   0  0  0  0  0  0  0  0  0  0  0  0
   13.6302   -4.0806   16.4356 C   0  0  0  0  0  0  0  0  0  0  0  0
   12.5952   -3.3038   16.1015 C   0  0  0  0  0  0  0  0  0  0  0  0
   12.4718   -1.9781   15.7577 N   0  0  0  0  0  0  0  0  0  0  0  0
   13.5712   -1.0232   15.7271 C   0  0  0  0  0  0  0  0  0  0  0  0
   12.9960    0.3963   15.5663 C   0  0  0  0  0  0  0  0  0  0  0  0
   12.5007    0.7868   14.1997 N   0  0  0  0  0  0  0  0  0  0  0  0
   12.0309    2.1230   13.6668 C   0  0  0  0  0  0  0  0  0  0  0  0
   11.8805    1.9730   12.1729 C   0  0  0  0  0  0  0  0  0  0  0  0
   11.8687    3.1471   14.2189 O   0  0  0  0  0  0  0  0  0  0  0  0
   11.3124   -0.0744   14.6724 C   0  0  0  0  0  0  0  0  0  0  0  0
   11.4839   -1.6175   14.7309 C   0  0  0  0  0  0  0  0  0  0  0  0
   16.7814   -5.1780   17.8163 C   0  0  0  0  0  0  0  0  0  0  0  0
   17.2795   -5.7342   18.9898 C   0  0  0  0  0  0  0  0  0  0  0  0
   16.6782   -5.4281   20.2030 C   0  0  0  0  0  0  0  0  0  0  0  0
   15.6062   -4.5276   20.2471 C   0  0  0  0  0  0  0  0  0  0  0  0
   14.8249   -4.2817   21.8186 S   0  0  0  0  0  0  0  0  0  0  0  0
   13.0850   -4.3172   21.5473 C   0  0  0  0  0  0  0  0  0  0  0  0
   15.1137   -5.4711   22.6092 O   0  0  0  0  0  0  0  0  0  0  0  0
   15.2316   -2.9783   22.3089 O   0  0  0  0  0  0  0  0  0  0  0  0
   15.5874   -1.4642   18.3503 H   0  0  0  0  0  0  0  0  0  0  0  0
   15.3967   -1.4353   20.1109 H   0  0  0  0  0  0  0  0  0  0  0  0
   14.1381   -0.7673   19.0811 H   0  0  0  0  0  0  0  0  0  0  0  0
   13.5428   -2.8838   18.3521 H   0  0  0  0  0  0  0  0  0  0  0  0
   15.3669   -2.7485   16.4162 H   0  0  0  0  0  0  0  0  0  0  0  0
   15.6035   -4.3204   15.7097 H   0  0  0  0  0  0  0  0  0  0  0  0
   13.3608   -5.1148   16.6299 H   0  0  0  0  0  0  0  0  0  0  0  0
   11.6269   -3.8093   16.0487 H   0  0  0  0  0  0  0  0  0  0  0  0
   14.1186   -1.0438   16.6674 H   0  0  0  0  0  0  0  0  0  0  0  0
   14.2599   -1.2513   14.9048 H   0  0  0  0  0  0  0  0  0  0  0  0
   13.8783    1.0511   15.6543 H   0  0  0  0  0  0  0  0  0  0  0  0
   12.4017    0.7631   16.4206 H   0  0  0  0  0  0  0  0  0  0  0  0
   12.8447    2.1616   11.6936 H   0  0  0  0  0  0  0  0  0  0  0  0
   11.5339    0.9756   11.9064 H   0  0  0  0  0  0  0  0  0  0  0  0
   11.1491    2.7006   11.8137 H   0  0  0  0  0  0  0  0  0  0  0  0
   10.5718    0.0797   13.8732 H   0  0  0  0  0  0  0  0  0  0  0  0
   10.7620    0.3460   15.5338 H   0  0  0  0  0  0  0  0  0  0  0  0
   11.8213   -1.9897   13.7557 H   0  0  0  0  0  0  0  0  0  0  0  0
   10.5136   -2.0718   14.9628 H   0  0  0  0  0  0  0  0  0  0  0  0
   17.2455   -5.4499   16.8700 H   0  0  0  0  0  0  0  0  0  0  0  0
   18.1190   -6.4244   18.9561 H   0  0  0  0  0  0  0  0  0  0  0  0
   17.0539   -5.8906   21.1141 H   0  0  0  0  0  0  0  0  0  0  0  0
   12.8347   -5.2264   20.9979 H   0  0  0  0  0  0  0  0  0  0  0  0
   12.6006   -4.3279   22.5260 H   0  0  0  0  0  0  0  0  0  0  0  0
   12.7650   -3.4391   21.0018 H   0  0  0  0  0  0  0  0  0  0  0  0
  1  2  1  0
  2  3  1  0
  3  4  2  0
  4  5  1  0
  5  6  1  0
  6  7  2  3
  7  8  1  0
  8  9  1  0
  9 10  1  0
 10 11  1  0
 11 12  1  0
 12 13  1  0
 12 14  2  0
 11 15  1  0
 15 16  1  0
  4 17  1  0
 17 18  2  0
 18 19  1  0
 19 20  2  0
 20 21  1  0
 21 22  1  0
 21 23  2  0
 21 24  2  0
 20  3  1  0
 16  8  1  0
  1 25  1  0
  1 26  1  0
  1 27  1  0
  2 28  1  0
  5 29  1  0
  5 30  1  0
  6 31  1  0
  7 32  1  0
  9 33  1  0
  9 34  1  0
 10 35  1  0
 10 36  1  0
 13 37  1  0
 13 38  1  0
 13 39  1  0
 15 40  1  0
 15 41  1  0
 16 42  1  0
 16 43  1  0
 17 44  1  0
 18 45  1  0
 19 46  1  0
 22 47  1  0
 22 48  1  0
 22 49  1  0
M  END
>  <Energy>  (610) 
201.32530147578453

>  <compound_id>  (610) 
1907

>  <target_id>  (610) 
1

>  <reference_id>  (610) 
27

>  <inspiration_ids>  (610) 
[27, 117]

>  <energy_score>  (610) 
22.042356751621185

>  <distance_score>  (610) 
1.8146080034762122

>  <path>  (610) 
/opt/xchem-fragalysis-2/maxwin/BulkDock/SCRATCH/505732/C1907-P27/C1907-P27.minimised.mol

>  <scratch_subdir>  (610) 
/opt/xchem-fragalysis-2/maxwin/BulkDock/SCRATCH/505732/C1907-P27

>  <fragmenstein_runtime>  (610) 
13.87458848953247

>  <fragmenstein_outcome>  (610) 
too moved

>  <fragmenstein_mode>  (610) 
expansion

>  <fragmenstein_error>  (610) 


$$$$
C1907-P117
     RDKit          3D

 49 50  0  0  0  0  0  0  0  0999 V2000
   13.3964   -3.7800   17.6795 C   0  0  0  0  0  0  0  0  0  0  0  0
   14.4114   -3.0604   18.4607 N   0  0  0  0  0  0  0  0  0  0  0  0
   15.5093   -3.9146   18.7546 C   0  0  0  0  0  0  0  0  0  0  0  0
   16.6733   -3.8703   17.9443 C   0  0  0  0  0  0  0  0  0  0  0  0
   16.9781   -2.7207   17.0027 C   0  0  0  0  0  0  0  0  0  0  0  0
   16.5467   -2.9438   15.5921 C   0  0  0  0  0  0  0  0  0  0  0  0
   15.4388   -2.5318   14.9664 C   0  0  0  0  0  0  0  0  0  0  0  0
   14.3254   -1.8222   15.4016 N   0  0  0  0  0  0  0  0  0  0  0  0
   14.5038   -0.4599   15.9196 C   0  0  0  0  0  0  0  0  0  0  0  0
   13.1351    0.1292   16.2933 C   0  0  0  0  0  0  0  0  0  0  0  0
   12.2783    0.5555   15.1293 N   0  0  0  0  0  0  0  0  0  0  0  0
   10.9917    1.3459   15.0925 C   0  0  0  0  0  0  0  0  0  0  0  0
   10.7344    1.6319   13.6321 C   0  0  0  0  0  0  0  0  0  0  0  0
   10.3184    1.7435   15.9691 O   0  0  0  0  0  0  0  0  0  0  0  0
   12.0039   -0.9484   15.1163 C   0  0  0  0  0  0  0  0  0  0  0  0
   13.1019   -1.8791   14.5698 C   0  0  0  0  0  0  0  0  0  0  0  0
   17.6428   -4.8851   18.0587 C   0  0  0  0  0  0  0  0  0  0  0  0
   17.5162   -5.8953   19.0033 C   0  0  0  0  0  0  0  0  0  0  0  0
   16.4410   -5.8814   19.8784 C   0  0  0  0  0  0  0  0  0  0  0  0
   15.4528   -4.8927   19.7691 C   0  0  0  0  0  0  0  0  0  0  0  0
   14.2715   -4.8286   21.1008 S   0  0  0  0  0  0  0  0  0  0  0  0
   14.2667   -3.1449   21.6387 C   0  0  0  0  0  0  0  0  0  0  0  0
   12.9789   -5.2190   20.5792 O   0  0  0  0  0  0  0  0  0  0  0  0
   14.8400   -5.5941   22.2019 O   0  0  0  0  0  0  0  0  0  0  0  0
   12.6101   -3.0819   17.3851 H   0  0  0  0  0  0  0  0  0  0  0  0
   12.9310   -4.5748   18.2578 H   0  0  0  0  0  0  0  0  0  0  0  0
   13.8164   -4.2235   16.7712 H   0  0  0  0  0  0  0  0  0  0  0  0
   14.7268   -2.3089   17.8509 H   0  0  0  0  0  0  0  0  0  0  0  0
   16.6002   -1.7842   17.4175 H   0  0  0  0  0  0  0  0  0  0  0  0
   18.0652   -2.5559   16.9937 H   0  0  0  0  0  0  0  0  0  0  0  0
   17.2480   -3.5281   14.9963 H   0  0  0  0  0  0  0  0  0  0  0  0
   15.3482   -2.8291   13.9202 H   0  0  0  0  0  0  0  0  0  0  0  0
   15.1369   -0.4494   16.8087 H   0  0  0  0  0  0  0  0  0  0  0  0
   14.9851    0.1689   15.1595 H   0  0  0  0  0  0  0  0  0  0  0  0
   12.6373   -0.3715   17.1361 H   0  0  0  0  0  0  0  0  0  0  0  0
   13.3681    1.1048   16.7490 H   0  0  0  0  0  0  0  0  0  0  0  0
   11.6542    1.5940   13.0410 H   0  0  0  0  0  0  0  0  0  0  0  0
   10.3162    2.6371   13.5331 H   0  0  0  0  0  0  0  0  0  0  0  0
   10.0334    0.8904   13.2485 H   0  0  0  0  0  0  0  0  0  0  0  0
   11.4735   -1.3332   16.0051 H   0  0  0  0  0  0  0  0  0  0  0  0
   11.2030   -1.0400   14.3673 H   0  0  0  0  0  0  0  0  0  0  0  0
   13.3401   -1.5871   13.5387 H   0  0  0  0  0  0  0  0  0  0  0  0
   12.7075   -2.8993   14.5586 H   0  0  0  0  0  0  0  0  0  0  0  0
   18.5241   -4.8742   17.4196 H   0  0  0  0  0  0  0  0  0  0  0  0
   18.2769   -6.6678   19.0862 H   0  0  0  0  0  0  0  0  0  0  0  0
   16.3878   -6.6434   20.6543 H   0  0  0  0  0  0  0  0  0  0  0  0
   15.2902   -2.8477   21.8775 H   0  0  0  0  0  0  0  0  0  0  0  0
   13.8552   -2.5046   20.8636 H   0  0  0  0  0  0  0  0  0  0  0  0
   13.6578   -3.0900   22.5435 H   0  0  0  0  0  0  0  0  0  0  0  0
  1  2  1  0
  2  3  1  0
  3  4  2  0
  4  5  1  0
  5  6  1  0
  6  7  2  3
  7  8  1  0
  8  9  1  0
  9 10  1  0
 10 11  1  0
 11 12  1  0
 12 13  1  0
 12 14  2  0
 11 15  1  0
 15 16  1  0
  4 17  1  0
 17 18  2  0
 18 19  1  0
 19 20  2  0
 20 21  1  0
 21 22  1  0
 21 23  2  0
 21 24  2  0
 20  3  1  0
 16  8  1  0
  1 25  1  0
  1 26  1  0
  1 27  1  0
  2 28  1  0
  5 29  1  0
  5 30  1  0
  6 31  1  0
  7 32  1  0
  9 33  1  0
  9 34  1  0
 10 35  1  0
 10 36  1  0
 13 37  1  0
 13 38  1  0
 13 39  1  0
 15 40  1  0
 15 41  1  0
 16 42  1  0
 16 43  1  0
 17 44  1  0
 18 45  1  0
 19 46  1  0
 22 47  1  0
 22 48  1  0
 22 49  1  0
M  END
>  <Energy>  (611) 
201.65767497496918

>  <compound_id>  (611) 
1907

>  <target_id>  (611) 
1

>  <reference_id>  (611) 
117

>  <inspiration_ids>  (611) 
[27, 117]

>  <energy_score>  (611) 
22.374730250808625

>  <distance_score>  (611) 
1.3778790963294965

>  <path>  (611) 
/opt/xchem-fragalysis-2/maxwin/BulkDock/SCRATCH/505732/C1907-P117/C1907-P117.minimised.mol

>  <scratch_subdir>  (611) 
/opt/xchem-fragalysis-2/maxwin/BulkDock/SCRATCH/505732/C1907-P117

>  <fragmenstein_runtime>  (611) 
14.426640510559082

>  <fragmenstein_outcome>  (611) 
too moved

>  <fragmenstein_mode>  (611) 
expansion

>  <fragmenstein_error>  (611) 


$$$$
C1908-P27
     RDKit          3D

 61 62  0  0  0  0  0  0  0  0999 V2000
    7.7306   -7.4521   12.8475 C   0  0  0  0  0  0  0  0  0  0  0  0
    8.5358   -6.7939   14.6076 C   0  0  0  0  0  0  0  0  0  0  0  0
    7.6469   -6.7048   15.4684 O   0  0  0  0  0  0  0  0  0  0  0  0
   10.4766   -6.3485   14.7445 N   0  0  0  0  0  0  0  0  0  0  0  0
   11.4416   -5.8455   16.1292 C   0  0  0  0  0  0  0  0  0  0  0  0
   11.7647   -4.4597   16.6890 C   0  0  0  0  0  0  0  0  0  0  0  0
   12.4764   -3.5461   15.8244 N   0  0  0  0  0  0  0  0  0  0  0  0
   12.9700   -2.3627   16.3548 C   0  0  0  0  0  0  0  0  0  0  0  0
   13.5842   -2.0548   17.5019 C   0  0  0  0  0  0  0  0  0  0  0  0
   14.0925   -2.9256   18.6221 C   0  0  0  0  0  0  0  0  0  0  0  0
   15.2715   -3.8379   18.2544 C   0  0  0  0  0  0  0  0  0  0  0  0
   16.2727   -3.1896   17.2854 C   0  0  0  0  0  0  0  0  0  0  0  0
   17.3512   -4.1584   16.8013 C   0  0  0  0  0  0  0  0  0  0  0  0
   17.6382   -3.9273   15.3148 C   0  0  0  0  0  0  0  0  0  0  0  0
   18.3573   -2.6285   14.9493 C   0  0  0  0  0  0  0  0  0  0  0  0
   17.8043   -1.2757   15.4613 C   0  0  0  0  0  0  0  0  0  0  0  0
   16.4391   -0.8686   14.8369 C   0  0  0  0  0  0  0  0  0  0  0  0
   16.0246    0.5905   15.1075 C   0  0  0  0  0  0  0  0  0  0  0  0
   14.5322    0.9010   14.9174 C   0  0  0  0  0  0  0  0  0  0  0  0
   13.9580    0.6043   13.5522 C   0  0  0  0  0  0  0  0  0  0  0  0
   12.9798    1.1947   13.0944 O   0  0  0  0  0  0  0  0  0  0  0  0
   17.9258   -1.2016   16.9962 C   0  0  0  0  0  0  0  0  0  0  0  0
   16.8569   -1.8864   17.8418 C   0  0  0  0  0  0  0  0  0  0  0  0
   11.7759   -3.4641   14.5580 C   0  0  0  0  0  0  0  0  0  0  0  0
   10.7524   -4.6030   14.2672 C   0  0  0  0  0  0  0  0  0  0  0  0
    6.6126   -7.4672   12.9514 H   0  0  0  0  0  0  0  0  0  0  0  0
    8.0503   -7.2071   11.8615 H   0  0  0  0  0  0  0  0  0  0  0  0
    7.4242   -8.4464   12.5887 H   0  0  0  0  0  0  0  0  0  0  0  0
   12.3729   -6.4351   16.1218 H   0  0  0  0  0  0  0  0  0  0  0  0
   10.8834   -6.4291   16.7071 H   0  0  0  0  0  0  0  0  0  0  0  0
   12.3146   -4.5870   17.6179 H   0  0  0  0  0  0  0  0  0  0  0  0
   10.8507   -3.9600   16.8770 H   0  0  0  0  0  0  0  0  0  0  0  0
   12.7976   -1.5315   15.6721 H   0  0  0  0  0  0  0  0  0  0  0  0
   13.8224   -1.0005   17.6433 H   0  0  0  0  0  0  0  0  0  0  0  0
   14.4284   -2.2531   19.4236 H   0  0  0  0  0  0  0  0  0  0  0  0
   13.2877   -3.5047   19.0817 H   0  0  0  0  0  0  0  0  0  0  0  0
   14.8644   -4.7358   17.7811 H   0  0  0  0  0  0  0  0  0  0  0  0
   15.7796   -4.1676   19.1686 H   0  0  0  0  0  0  0  0  0  0  0  0
   15.6740   -2.9628   16.4075 H   0  0  0  0  0  0  0  0  0  0  0  0
   16.9996   -5.1919   16.9088 H   0  0  0  0  0  0  0  0  0  0  0  0
   18.2679   -4.0773   17.3960 H   0  0  0  0  0  0  0  0  0  0  0  0
   16.7000   -3.9825   14.7514 H   0  0  0  0  0  0  0  0  0  0  0  0
   18.2517   -4.7624   14.9528 H   0  0  0  0  0  0  0  0  0  0  0  0
   19.3982   -2.7190   15.2897 H   0  0  0  0  0  0  0  0  0  0  0  0
   18.4183   -2.5795   13.8538 H   0  0  0  0  0  0  0  0  0  0  0  0
   18.5218   -0.5310   15.0833 H   0  0  0  0  0  0  0  0  0  0  0  0
   16.5132   -1.0013   13.7496 H   0  0  0  0  0  0  0  0  0  0  0  0
   15.6338   -1.5271   15.1510 H   0  0  0  0  0  0  0  0  0  0  0  0
   16.6145    1.2446   14.4535 H   0  0  0  0  0  0  0  0  0  0  0  0
   16.2786    0.8647   16.1370 H   0  0  0  0  0  0  0  0  0  0  0  0
   13.9530    0.3365   15.6486 H   0  0  0  0  0  0  0  0  0  0  0  0
   14.3650    1.9649   15.1219 H   0  0  0  0  0  0  0  0  0  0  0  0
   14.3878   -0.2560   13.0139 H   0  0  0  0  0  0  0  0  0  0  0  0
   18.9053   -1.6042   17.2885 H   0  0  0  0  0  0  0  0  0  0  0  0
   17.9668   -0.1469   17.2983 H   0  0  0  0  0  0  0  0  0  0  0  0
   17.2772   -2.0726   18.8390 H   0  0  0  0  0  0  0  0  0  0  0  0
   16.0608   -1.1529   17.9974 H   0  0  0  0  0  0  0  0  0  0  0  0
   11.1831   -2.5348   14.5383 H   0  0  0  0  0  0  0  0  0  0  0  0
   12.4574   -3.3060   13.7168 H   0  0  0  0  0  0  0  0  0  0  0  0
    9.8810   -4.1327   14.7342 H   0  0  0  0  0  0  0  0  0  0  0  0
   10.8882   -4.6403   13.1910 H   0  0  0  0  0  0  0  0  0  0  0  0
  1  2  1  0
  2  3  2  0
  2  4  1  0
  4  5  1  0
  5  6  1  0
  6  7  1  0
  7  8  1  0
  8  9  2  3
  9 10  1  0
 10 11  1  0
 11 12  1  0
 12 13  1  0
 13 14  1  0
 14 15  1  0
 15 16  1  0
 16 17  1  0
 17 18  1  0
 18 19  1  0
 19 20  1  0
 20 21  2  0
 16 22  1  0
 22 23  1  0
  7 24  1  0
 24 25  1  0
 25  4  1  0
 23 12  1  0
  1 26  1  0
  1 27  1  0
  1 28  1  0
  5 29  1  0
  5 30  1  0
  6 31  1  0
  6 32  1  0
  8 33  1  0
  9 34  1  0
 10 35  1  0
 10 36  1  0
 11 37  1  0
 11 38  1  0
 12 39  1  0
 13 40  1  0
 13 41  1  0
 14 42  1  0
 14 43  1  0
 15 44  1  0
 15 45  1  0
 16 46  1  0
 17 47  1  0
 17 48  1  0
 18 49  1  0
 18 50  1  0
 19 51  1  0
 19 52  1  0
 20 53  1  0
 22 54  1  0
 22 55  1  0
 23 56  1  0
 23 57  1  0
 24 58  1  0
 24 59  1  0
 25 60  1  0
 25 61  1  0
M  END
>  <Energy>  (612) 
468.23552837608202

>  <compound_id>  (612) 
1908

>  <target_id>  (612) 
1

>  <reference_id>  (612) 
27

>  <inspiration_ids>  (612) 
[27, 118]

>  <energy_score>  (612) 
309.5421664662975

>  <distance_score>  (612) 
3.428295372974381

>  <path>  (612) 
/opt/xchem-fragalysis-2/maxwin/BulkDock/SCRATCH/505732/C1908-P27/C1908-P27.minimised.mol

>  <scratch_subdir>  (612) 
/opt/xchem-fragalysis-2/maxwin/BulkDock/SCRATCH/505732/C1908-P27

>  <fragmenstein_runtime>  (612) 
80.41855573654175

>  <fragmenstein_outcome>  (612) 
too moved

>  <fragmenstein_mode>  (612) 
expansion

>  <fragmenstein_error>  (612) 


$$$$
C1908-P118
     RDKit          3D

 61 62  0  0  0  0  0  0  0  0999 V2000
   11.5006  -10.2269   15.3546 C   0  0  0  0  0  0  0  0  0  0  0  0
   11.6912   -9.3090   16.4263 C   0  0  0  0  0  0  0  0  0  0  0  0
   11.5083   -9.9239   17.5389 O   0  0  0  0  0  0  0  0  0  0  0  0
   12.2929   -7.4440   16.0550 N   0  0  0  0  0  0  0  0  0  0  0  0
   12.9331   -5.9690   17.2192 C   0  0  0  0  0  0  0  0  0  0  0  0
   13.6329   -4.6887   16.6958 C   0  0  0  0  0  0  0  0  0  0  0  0
   12.6072   -3.8876   16.0333 N   0  0  0  0  0  0  0  0  0  0  0  0
   12.6102   -2.5134   15.8591 C   0  0  0  0  0  0  0  0  0  0  0  0
   13.1759   -1.4079   16.3577 C   0  0  0  0  0  0  0  0  0  0  0  0
   14.1288   -0.9558   17.4314 C   0  0  0  0  0  0  0  0  0  0  0  0
   15.0184   -1.8700   18.2869 C   0  0  0  0  0  0  0  0  0  0  0  0
   16.2014   -2.3887   17.4653 C   0  0  0  0  0  0  0  0  0  0  0  0
   16.8667   -3.6423   18.0374 C   0  0  0  0  0  0  0  0  0  0  0  0
   18.0323   -4.1591   17.1797 C   0  0  0  0  0  0  0  0  0  0  0  0
   17.8370   -4.0096   15.6606 C   0  0  0  0  0  0  0  0  0  0  0  0
   17.8458   -2.5621   15.0605 C   0  0  0  0  0  0  0  0  0  0  0  0
   16.5892   -2.2879   14.1655 C   0  0  0  0  0  0  0  0  0  0  0  0
   16.0772   -0.8420   14.0388 C   0  0  0  0  0  0  0  0  0  0  0  0
   14.8250   -0.7597   13.1474 C   0  0  0  0  0  0  0  0  0  0  0  0
   14.1587    0.5956   13.2345 C   0  0  0  0  0  0  0  0  0  0  0  0
   12.9417    0.7606   13.2916 O   0  0  0  0  0  0  0  0  0  0  0  0
   18.2084   -1.4876   16.0951 C   0  0  0  0  0  0  0  0  0  0  0  0
   17.2452   -1.2791   17.2624 C   0  0  0  0  0  0  0  0  0  0  0  0
   11.2726   -4.5974   15.9354 C   0  0  0  0  0  0  0  0  0  0  0  0
   11.1460   -6.5224   15.9751 C   0  0  0  0  0  0  0  0  0  0  0  0
   10.5001  -10.2132   14.9157 H   0  0  0  0  0  0  0  0  0  0  0  0
   11.4814  -11.2284   15.8135 H   0  0  0  0  0  0  0  0  0  0  0  0
   12.4704  -10.1547   14.9169 H   0  0  0  0  0  0  0  0  0  0  0  0
   13.3028   -6.0425   18.2628 H   0  0  0  0  0  0  0  0  0  0  0  0
   12.1803   -5.1982   17.6074 H   0  0  0  0  0  0  0  0  0  0  0  0
   14.5916   -4.8537   16.2056 H   0  0  0  0  0  0  0  0  0  0  0  0
   13.9219   -4.1443   17.5928 H   0  0  0  0  0  0  0  0  0  0  0  0
   11.8887   -2.2941   15.0629 H   0  0  0  0  0  0  0  0  0  0  0  0
   12.8060   -0.5105   15.8452 H   0  0  0  0  0  0  0  0  0  0  0  0
   14.7623   -0.2030   16.9519 H   0  0  0  0  0  0  0  0  0  0  0  0
   13.5498   -0.3467   18.1244 H   0  0  0  0  0  0  0  0  0  0  0  0
   14.4276   -2.6672   18.7399 H   0  0  0  0  0  0  0  0  0  0  0  0
   15.4047   -1.2879   19.1345 H   0  0  0  0  0  0  0  0  0  0  0  0
   15.7586   -2.6729   16.5157 H   0  0  0  0  0  0  0  0  0  0  0  0
   16.1239   -4.4424   18.1261 H   0  0  0  0  0  0  0  0  0  0  0  0
   17.2269   -3.4546   19.0565 H   0  0  0  0  0  0  0  0  0  0  0  0
   18.1728   -5.2232   17.4097 H   0  0  0  0  0  0  0  0  0  0  0  0
   18.9656   -3.6748   17.4883 H   0  0  0  0  0  0  0  0  0  0  0  0
   18.6443   -4.5703   15.1705 H   0  0  0  0  0  0  0  0  0  0  0  0
   16.9165   -4.5347   15.3926 H   0  0  0  0  0  0  0  0  0  0  0  0
   18.6868   -2.5484   14.3500 H   0  0  0  0  0  0  0  0  0  0  0  0
   16.8221   -2.6535   13.1563 H   0  0  0  0  0  0  0  0  0  0  0  0
   15.7496   -2.9039   14.4993 H   0  0  0  0  0  0  0  0  0  0  0  0
   16.8647   -0.2073   13.6154 H   0  0  0  0  0  0  0  0  0  0  0  0
   15.8377   -0.4311   15.0195 H   0  0  0  0  0  0  0  0  0  0  0  0
   15.1039   -0.9284   12.1017 H   0  0  0  0  0  0  0  0  0  0  0  0
   14.0921   -1.5214   13.4296 H   0  0  0  0  0  0  0  0  0  0  0  0
   14.8367    1.4636   13.1631 H   0  0  0  0  0  0  0  0  0  0  0  0
   19.2031   -1.7148   16.5010 H   0  0  0  0  0  0  0  0  0  0  0  0
   18.3506   -0.5263   15.5840 H   0  0  0  0  0  0  0  0  0  0  0  0
   17.8284   -1.1502   18.1845 H   0  0  0  0  0  0  0  0  0  0  0  0
   16.7697   -0.3057   17.1131 H   0  0  0  0  0  0  0  0  0  0  0  0
   10.7670   -4.2477   16.8089 H   0  0  0  0  0  0  0  0  0  0  0  0
   10.7598   -4.2376   15.0283 H   0  0  0  0  0  0  0  0  0  0  0  0
   10.2321   -7.0909   15.8316 H   0  0  0  0  0  0  0  0  0  0  0  0
   10.7659   -6.5947   14.9703 H   0  0  0  0  0  0  0  0  0  0  0  0
  1  2  1  0
  2  3  2  0
  2  4  1  0
  4  5  1  0
  5  6  1  0
  6  7  1  0
  7  8  1  0
  8  9  2  3
  9 10  1  0
 10 11  1  0
 11 12  1  0
 12 13  1  0
 13 14  1  0
 14 15  1  0
 15 16  1  0
 16 17  1  0
 17 18  1  0
 18 19  1  0
 19 20  1  0
 20 21  2  0
 16 22  1  0
 22 23  1  0
  7 24  1  0
 24 25  1  0
 25  4  1  0
 23 12  1  0
  1 26  1  0
  1 27  1  0
  1 28  1  0
  5 29  1  0
  5 30  1  0
  6 31  1  0
  6 32  1  0
  8 33  1  0
  9 34  1  0
 10 35  1  0
 10 36  1  0
 11 37  1  0
 11 38  1  0
 12 39  1  0
 13 40  1  0
 13 41  1  0
 14 42  1  0
 14 43  1  0
 15 44  1  0
 15 45  1  0
 16 46  1  0
 17 47  1  0
 17 48  1  0
 18 49  1  0
 18 50  1  0
 19 51  1  0
 19 52  1  0
 20 53  1  0
 22 54  1  0
 22 55  1  0
 23 56  1  0
 23 57  1  0
 24 58  1  0
 24 59  1  0
 25 60  1  0
 25 61  1  0
M  END
>  <Energy>  (613) 
516.7568721447426

>  <compound_id>  (613) 
1908

>  <target_id>  (613) 
1

>  <reference_id>  (613) 
118

>  <inspiration_ids>  (613) 
[27, 118]

>  <energy_score>  (613) 
358.06351023496035

>  <distance_score>  (613) 
3.785156447967479

>  <path>  (613) 
/opt/xchem-fragalysis-2/maxwin/BulkDock/SCRATCH/505732/C1908-P118/C1908-P118.minimised.mol

>  <scratch_subdir>  (613) 
/opt/xchem-fragalysis-2/maxwin/BulkDock/SCRATCH/505732/C1908-P118

>  <fragmenstein_runtime>  (613) 
84.89632678031921

>  <fragmenstein_outcome>  (613) 
too moved

>  <fragmenstein_mode>  (613) 
expansion

>  <fragmenstein_error>  (613) 


$$$$
C1909-P27
     RDKit          3D

 68 70  0  0  0  0  0  0  0  0999 V2000
    9.5749    2.4500   16.1481 C   0  0  0  0  0  0  0  0  0  0  0  0
   10.5157    2.1177   15.0001 C   0  0  0  0  0  0  0  0  0  0  0  0
   10.4176    0.6568   14.5504 C   0  0  0  0  0  0  0  0  0  0  0  0
   11.2836   -0.2987   15.3675 C   0  0  0  0  0  0  0  0  0  0  0  0
   11.9466    0.1065   16.2746 O   0  0  0  0  0  0  0  0  0  0  0  0
   11.1034   -1.6280   14.8598 N   0  0  0  0  0  0  0  0  0  0  0  0
   11.7377   -2.8780   15.2232 C   0  0  0  0  0  0  0  0  0  0  0  0
   12.7076   -2.8443   16.4352 C   0  0  0  0  0  0  0  0  0  0  0  0
   12.9168   -4.1480   17.0491 N   0  0  0  0  0  0  0  0  0  0  0  0
   13.9645   -3.8373   18.0287 C   0  0  0  0  0  0  0  0  0  0  0  0
   14.9248   -2.9006   17.2532 C   0  0  0  0  0  0  0  0  0  0  0  0
   16.1395   -3.6935   16.7187 C   0  0  0  0  0  0  0  0  0  0  0  0
   17.2842   -3.8408   17.7307 C   0  0  0  0  0  0  0  0  0  0  0  0
   16.8951   -3.5587   19.1766 C   0  0  0  0  0  0  0  0  0  0  0  0
   16.1441   -2.2362   19.3788 C   0  0  0  0  0  0  0  0  0  0  0  0
   15.3978   -1.7088   18.1252 C   0  0  0  0  0  0  0  0  0  0  0  0
   16.2893   -0.6353   17.4243 C   0  0  0  0  0  0  0  0  0  0  0  0
   15.8941   -0.1722   16.0489 C   0  0  0  0  0  0  0  0  0  0  0  0
   15.3670    1.0204   15.7444 C   0  0  0  0  0  0  0  0  0  0  0  0
   15.0454    1.5174   14.4932 N   0  0  0  0  0  0  0  0  0  0  0  0
   14.7294    0.6987   13.3279 C   0  0  0  0  0  0  0  0  0  0  0  0
   15.1357    1.4869   12.0545 C   0  0  0  0  0  0  0  0  0  0  0  0
   14.3448    2.7085   11.6104 N   0  0  0  0  0  0  0  0  0  0  0  0
   12.9423    2.9655   11.6247 C   0  0  0  0  0  0  0  0  0  0  0  0
   12.6677    4.2668   10.8997 C   0  0  0  0  0  0  0  0  0  0  0  0
   12.0325    2.3194   12.0744 O   0  0  0  0  0  0  0  0  0  0  0  0
   15.0092    3.3190   12.8603 C   0  0  0  0  0  0  0  0  0  0  0  0
   14.5746    2.8780   14.2848 C   0  0  0  0  0  0  0  0  0  0  0  0
   14.0711   -2.4436   16.1319 N   0  0  0  0  0  0  0  0  0  0  0  0
    8.5293    2.4273   15.8325 H   0  0  0  0  0  0  0  0  0  0  0  0
    9.6814    1.7403   16.9665 H   0  0  0  0  0  0  0  0  0  0  0  0
    9.7828    3.4551   16.5279 H   0  0  0  0  0  0  0  0  0  0  0  0
   11.5387    2.3623   15.2992 H   0  0  0  0  0  0  0  0  0  0  0  0
   10.2675    2.7729   14.1573 H   0  0  0  0  0  0  0  0  0  0  0  0
    9.3825    0.3041   14.6000 H   0  0  0  0  0  0  0  0  0  0  0  0
   10.7548    0.5873   13.5103 H   0  0  0  0  0  0  0  0  0  0  0  0
   10.5240   -1.5876   14.0152 H   0  0  0  0  0  0  0  0  0  0  0  0
   12.2379   -3.2287   14.3186 H   0  0  0  0  0  0  0  0  0  0  0  0
   10.9188   -3.5752   15.4187 H   0  0  0  0  0  0  0  0  0  0  0  0
   12.2883   -2.1684   17.1833 H   0  0  0  0  0  0  0  0  0  0  0  0
   13.2914   -4.7728   16.3408 H   0  0  0  0  0  0  0  0  0  0  0  0
   14.4307   -4.7610   18.3771 H   0  0  0  0  0  0  0  0  0  0  0  0
   13.5079   -3.3456   18.8961 H   0  0  0  0  0  0  0  0  0  0  0  0
   16.5527   -3.2124   15.8223 H   0  0  0  0  0  0  0  0  0  0  0  0
   15.8232   -4.6898   16.3851 H   0  0  0  0  0  0  0  0  0  0  0  0
   18.0953   -3.1583   17.4482 H   0  0  0  0  0  0  0  0  0  0  0  0
   17.7099   -4.8486   17.6534 H   0  0  0  0  0  0  0  0  0  0  0  0
   17.7932   -3.5630   19.8060 H   0  0  0  0  0  0  0  0  0  0  0  0
   16.2790   -4.3850   19.5497 H   0  0  0  0  0  0  0  0  0  0  0  0
   16.8436   -1.4755   19.7478 H   0  0  0  0  0  0  0  0  0  0  0  0
   15.4214   -2.3786   20.1931 H   0  0  0  0  0  0  0  0  0  0  0  0
   14.5089   -1.1665   18.4809 H   0  0  0  0  0  0  0  0  0  0  0  0
   16.3498    0.2353   18.0920 H   0  0  0  0  0  0  0  0  0  0  0  0
   17.3199   -1.0021   17.3465 H   0  0  0  0  0  0  0  0  0  0  0  0
   16.1028   -0.8745   15.2502 H   0  0  0  0  0  0  0  0  0  0  0  0
   15.1870    1.7371   16.5447 H   0  0  0  0  0  0  0  0  0  0  0  0
   15.2830   -0.2456   13.3311 H   0  0  0  0  0  0  0  0  0  0  0  0
   13.6600    0.4595   13.3128 H   0  0  0  0  0  0  0  0  0  0  0  0
   16.2255    1.6202   11.9511 H   0  0  0  0  0  0  0  0  0  0  0  0
   14.9068    0.7863   11.2363 H   0  0  0  0  0  0  0  0  0  0  0  0
   13.5885    4.7908   10.6273 H   0  0  0  0  0  0  0  0  0  0  0  0
   12.1106    4.0534    9.9840 H   0  0  0  0  0  0  0  0  0  0  0  0
   12.0773    4.9188   11.5495 H   0  0  0  0  0  0  0  0  0  0  0  0
   14.7005    4.3752   12.8081 H   0  0  0  0  0  0  0  0  0  0  0  0
   16.1050    3.3992   12.7550 H   0  0  0  0  0  0  0  0  0  0  0  0
   13.4890    2.9335   14.3980 H   0  0  0  0  0  0  0  0  0  0  0  0
   15.0263    3.5601   15.0147 H   0  0  0  0  0  0  0  0  0  0  0  0
   14.3707   -2.8495   15.2564 H   0  0  0  0  0  0  0  0  0  0  0  0
  1  2  1  0
  2  3  1  0
  3  4  1  0
  4  5  2  0
  4  6  1  0
  6  7  1  0
  7  8  1  0
  8  9  1  0
  9 10  1  0
 10 11  1  0
 11 12  1  0
 12 13  1  0
 13 14  1  0
 14 15  1  0
 15 16  1  0
 16 17  1  0
 17 18  1  0
 18 19  2  3
 19 20  1  0
 20 21  1  0
 21 22  1  0
 22 23  1  0
 23 24  1  0
 24 25  1  0
 24 26  2  0
 23 27  1  0
 27 28  1  0
 11 29  1  0
 29  8  1  0
 16 11  1  0
 28 20  1  0
  1 30  1  0
  1 31  1  0
  1 32  1  0
  2 33  1  0
  2 34  1  0
  3 35  1  0
  3 36  1  0
  6 37  1  0
  7 38  1  0
  7 39  1  0
  8 40  1  0
  9 41  1  0
 10 42  1  0
 10 43  1  0
 12 44  1  0
 12 45  1  0
 13 46  1  0
 13 47  1  0
 14 48  1  0
 14 49  1  0
 15 50  1  0
 15 51  1  0
 16 52  1  0
 17 53  1  0
 17 54  1  0
 18 55  1  0
 19 56  1  0
 21 57  1  0
 21 58  1  0
 22 59  1  0
 22 60  1  0
 25 61  1  0
 25 62  1  0
 25 63  1  0
 27 64  1  0
 27 65  1  0
 28 66  1  0
 28 67  1  0
 29 68  1  0
M  END
>  <Energy>  (614) 
150.39820758231551

>  <compound_id>  (614) 
1909

>  <target_id>  (614) 
1

>  <reference_id>  (614) 
27

>  <inspiration_ids>  (614) 
[27, 120]

>  <energy_score>  (614) 
-18.388967544539923

>  <distance_score>  (614) 
2.086941632547469

>  <path>  (614) 
/opt/xchem-fragalysis-2/maxwin/BulkDock/SCRATCH/505732/C1909-P27/C1909-P27.minimised.mol

>  <scratch_subdir>  (614) 
/opt/xchem-fragalysis-2/maxwin/BulkDock/SCRATCH/505732/C1909-P27

>  <fragmenstein_runtime>  (614) 
17.74856686592102

>  <fragmenstein_outcome>  (614) 
too moved

>  <fragmenstein_mode>  (614) 
expansion

>  <fragmenstein_error>  (614) 


$$$$
C1909-P120
     RDKit          3D

 68 70  0  0  0  0  0  0  0  0999 V2000
   11.6774    1.0146   24.6311 C   0  0  0  0  0  0  0  0  0  0  0  0
   12.3994    2.2346   24.0735 C   0  0  0  0  0  0  0  0  0  0  0  0
   13.0047    1.9690   22.6952 C   0  0  0  0  0  0  0  0  0  0  0  0
   14.2817    1.1195   22.7270 C   0  0  0  0  0  0  0  0  0  0  0  0
   14.8193    0.8594   23.7625 O   0  0  0  0  0  0  0  0  0  0  0  0
   14.6427    0.7956   21.3768 N   0  0  0  0  0  0  0  0  0  0  0  0
   15.7104   -0.0224   20.8526 C   0  0  0  0  0  0  0  0  0  0  0  0
   15.1843   -1.1643   19.9458 C   0  0  0  0  0  0  0  0  0  0  0  0
   14.4182   -0.6678   18.8000 N   0  0  0  0  0  0  0  0  0  0  0  0
   14.3904   -1.8547   17.9370 C   0  0  0  0  0  0  0  0  0  0  0  0
   15.8386   -2.3464   17.9779 C   0  0  0  0  0  0  0  0  0  0  0  0
   15.8674   -3.8780   17.8562 C   0  0  0  0  0  0  0  0  0  0  0  0
   17.2301   -4.4893   17.5262 C   0  0  0  0  0  0  0  0  0  0  0  0
   18.3918   -3.5697   17.8473 C   0  0  0  0  0  0  0  0  0  0  0  0
   18.2616   -2.1945   17.1846 C   0  0  0  0  0  0  0  0  0  0  0  0
   16.8026   -1.6949   16.9356 C   0  0  0  0  0  0  0  0  0  0  0  0
   16.4238   -1.9564   15.4435 C   0  0  0  0  0  0  0  0  0  0  0  0
   15.3544   -1.1513   14.7433 C   0  0  0  0  0  0  0  0  0  0  0  0
   14.8178    0.0305   15.0782 C   0  0  0  0  0  0  0  0  0  0  0  0
   13.8510    0.7574   14.4035 N   0  0  0  0  0  0  0  0  0  0  0  0
   13.4358    0.5418   13.0195 C   0  0  0  0  0  0  0  0  0  0  0  0
   13.7851    1.8180   12.2075 C   0  0  0  0  0  0  0  0  0  0  0  0
   12.9564    3.0823   12.3798 N   0  0  0  0  0  0  0  0  0  0  0  0
   11.5510    3.2583   12.5588 C   0  0  0  0  0  0  0  0  0  0  0  0
   11.2281    4.7376   12.5356 C   0  0  0  0  0  0  0  0  0  0  0  0
   10.6726    2.4484   12.7099 O   0  0  0  0  0  0  0  0  0  0  0  0
   13.6747    3.1010   13.7484 C   0  0  0  0  0  0  0  0  0  0  0  0
   13.3493    2.0535   14.8494 C   0  0  0  0  0  0  0  0  0  0  0  0
   16.2540   -1.9607   19.3553 N   0  0  0  0  0  0  0  0  0  0  0  0
   12.3565    0.1666   24.7561 H   0  0  0  0  0  0  0  0  0  0  0  0
   10.8638    0.7074   23.9652 H   0  0  0  0  0  0  0  0  0  0  0  0
   11.2433    1.2476   25.6092 H   0  0  0  0  0  0  0  0  0  0  0  0
   11.6749    3.0533   23.9871 H   0  0  0  0  0  0  0  0  0  0  0  0
   13.1694    2.5617   24.7820 H   0  0  0  0  0  0  0  0  0  0  0  0
   13.2704    2.9298   22.2353 H   0  0  0  0  0  0  0  0  0  0  0  0
   12.2568    1.4838   22.0583 H   0  0  0  0  0  0  0  0  0  0  0  0
   13.9080    1.1092   20.7540 H   0  0  0  0  0  0  0  0  0  0  0  0
   16.2786   -0.4333   21.6943 H   0  0  0  0  0  0  0  0  0  0  0  0
   16.3724    0.6457   20.2892 H   0  0  0  0  0  0  0  0  0  0  0  0
   14.5400   -1.8149   20.5519 H   0  0  0  0  0  0  0  0  0  0  0  0
   14.9785    0.0483   18.3452 H   0  0  0  0  0  0  0  0  0  0  0  0
   14.0048   -1.6230   16.9475 H   0  0  0  0  0  0  0  0  0  0  0  0
   13.7080   -2.6018   18.3642 H   0  0  0  0  0  0  0  0  0  0  0  0
   15.1599   -4.1716   17.0733 H   0  0  0  0  0  0  0  0  0  0  0  0
   15.4877   -4.3345   18.7807 H   0  0  0  0  0  0  0  0  0  0  0  0
   17.2630   -4.7417   16.4590 H   0  0  0  0  0  0  0  0  0  0  0  0
   17.3459   -5.4398   18.0602 H   0  0  0  0  0  0  0  0  0  0  0  0
   19.3338   -4.0354   17.5339 H   0  0  0  0  0  0  0  0  0  0  0  0
   18.4703   -3.4498   18.9345 H   0  0  0  0  0  0  0  0  0  0  0  0
   18.8323   -2.1974   16.2482 H   0  0  0  0  0  0  0  0  0  0  0  0
   18.7807   -1.4653   17.8211 H   0  0  0  0  0  0  0  0  0  0  0  0
   16.8228   -0.6067   17.0796 H   0  0  0  0  0  0  0  0  0  0  0  0
   17.3180   -1.8178   14.8219 H   0  0  0  0  0  0  0  0  0  0  0  0
   16.1531   -3.0105   15.3213 H   0  0  0  0  0  0  0  0  0  0  0  0
   15.0086   -1.6346   13.8319 H   0  0  0  0  0  0  0  0  0  0  0  0
   15.1405    0.5250   15.9904 H   0  0  0  0  0  0  0  0  0  0  0  0
   13.9355   -0.3138   12.5564 H   0  0  0  0  0  0  0  0  0  0  0  0
   12.3581    0.3476   12.9886 H   0  0  0  0  0  0  0  0  0  0  0  0
   14.8677    2.0155   12.1369 H   0  0  0  0  0  0  0  0  0  0  0  0
   13.5258    1.5434   11.1734 H   0  0  0  0  0  0  0  0  0  0  0  0
   12.0713    5.3331   12.1740 H   0  0  0  0  0  0  0  0  0  0  0  0
   10.3811    4.9073   11.8659 H   0  0  0  0  0  0  0  0  0  0  0  0
   10.9685    5.0628   13.5466 H   0  0  0  0  0  0  0  0  0  0  0  0
   13.3370    4.0539   14.1854 H   0  0  0  0  0  0  0  0  0  0  0  0
   14.7593    3.2736   13.6395 H   0  0  0  0  0  0  0  0  0  0  0  0
   12.2689    1.9934   15.0228 H   0  0  0  0  0  0  0  0  0  0  0  0
   13.8159    2.3615   15.7925 H   0  0  0  0  0  0  0  0  0  0  0  0
   17.1086   -1.4123   19.3329 H   0  0  0  0  0  0  0  0  0  0  0  0
  1  2  1  0
  2  3  1  0
  3  4  1  0
  4  5  2  0
  4  6  1  0
  6  7  1  0
  7  8  1  0
  8  9  1  0
  9 10  1  0
 10 11  1  0
 11 12  1  0
 12 13  1  0
 13 14  1  0
 14 15  1  0
 15 16  1  0
 16 17  1  0
 17 18  1  0
 18 19  2  3
 19 20  1  0
 20 21  1  0
 21 22  1  0
 22 23  1  0
 23 24  1  0
 24 25  1  0
 24 26  2  0
 23 27  1  0
 27 28  1  0
 11 29  1  0
 29  8  1  0
 16 11  1  0
 28 20  1  0
  1 30  1  0
  1 31  1  0
  1 32  1  0
  2 33  1  0
  2 34  1  0
  3 35  1  0
  3 36  1  0
  6 37  1  0
  7 38  1  0
  7 39  1  0
  8 40  1  0
  9 41  1  0
 10 42  1  0
 10 43  1  0
 12 44  1  0
 12 45  1  0
 13 46  1  0
 13 47  1  0
 14 48  1  0
 14 49  1  0
 15 50  1  0
 15 51  1  0
 16 52  1  0
 17 53  1  0
 17 54  1  0
 18 55  1  0
 19 56  1  0
 21 57  1  0
 21 58  1  0
 22 59  1  0
 22 60  1  0
 25 61  1  0
 25 62  1  0
 25 63  1  0
 27 64  1  0
 27 65  1  0
 28 66  1  0
 28 67  1  0
 29 68  1  0
M  END
>  <Energy>  (615) 
145.3298909855545

>  <compound_id>  (615) 
1909

>  <target_id>  (615) 
1

>  <reference_id>  (615) 
120

>  <inspiration_ids>  (615) 
[27, 120]

>  <energy_score>  (615) 
-23.457284141300107

>  <distance_score>  (615) 
3.7011446904998606

>  <path>  (615) 
/opt/xchem-fragalysis-2/maxwin/BulkDock/SCRATCH/505732/C1909-P120/C1909-P120.minimised.mol

>  <scratch_subdir>  (615) 
/opt/xchem-fragalysis-2/maxwin/BulkDock/SCRATCH/505732/C1909-P120

>  <fragmenstein_runtime>  (615) 
20.74350881576538

>  <fragmenstein_outcome>  (615) 
too moved

>  <fragmenstein_mode>  (615) 
expansion

>  <fragmenstein_error>  (615) 


$$$$
C1912-P27
     RDKit          3D

 40 41  0  0  0  0  0  0  0  0999 V2000
   16.9171    3.2827   17.2897 C   0  0  0  0  0  0  0  0  0  0  0  0
   17.6543    2.4703   16.2468 C   0  0  0  0  0  0  0  0  0  0  0  0
   17.2282    2.2855   15.1668 O   0  0  0  0  0  0  0  0  0  0  0  0
   18.9492    2.0035   16.8842 N   0  0  0  0  0  0  0  0  0  0  0  0
   18.7675    0.6486   17.5829 C   0  0  0  0  0  0  0  0  0  0  0  0
   18.2084   -0.5552   16.7764 C   0  0  0  0  0  0  0  0  0  0  0  0
   19.1943   -0.9685   15.7877 N   0  0  0  0  0  0  0  0  0  0  0  0
   19.2697   -2.2177   15.2107 C   0  0  0  0  0  0  0  0  0  0  0  0
   18.4220   -3.2524   15.1905 C   0  0  0  0  0  0  0  0  0  0  0  0
   16.9890   -3.3257   15.6719 C   0  0  0  0  0  0  0  0  0  0  0  0
   16.7009   -3.9125   17.0472 C   0  0  0  0  0  0  0  0  0  0  0  0
   15.5004   -3.5683   17.6973 C   0  0  0  0  0  0  0  0  0  0  0  0
   15.1549   -4.1229   18.9374 C   0  0  0  0  0  0  0  0  0  0  0  0
   16.0115   -5.0162   19.5775 C   0  0  0  0  0  0  0  0  0  0  0  0
   15.5989   -5.6722   20.7429 N   0  0  0  0  0  0  0  0  0  0  0  0
   17.1696   -5.4168   18.9070 C   0  0  0  0  0  0  0  0  0  0  0  0
   17.5198   -4.8633   17.6643 C   0  0  0  0  0  0  0  0  0  0  0  0
   19.8600    0.1888   15.1944 C   0  0  0  0  0  0  0  0  0  0  0  0
   20.1259    1.2489   16.2924 C   0  0  0  0  0  0  0  0  0  0  0  0
   17.5639    3.5555   18.1283 H   0  0  0  0  0  0  0  0  0  0  0  0
   16.5522    4.2048   16.8284 H   0  0  0  0  0  0  0  0  0  0  0  0
   16.0722    2.6991   17.6645 H   0  0  0  0  0  0  0  0  0  0  0  0
   19.5921    0.3765   18.2652 H   0  0  0  0  0  0  0  0  0  0  0  0
   17.9622    0.8689   18.3021 H   0  0  0  0  0  0  0  0  0  0  0  0
   17.2676   -0.2832   16.2865 H   0  0  0  0  0  0  0  0  0  0  0  0
   18.0108   -1.3643   17.4867 H   0  0  0  0  0  0  0  0  0  0  0  0
   20.2170   -2.3519   14.6862 H   0  0  0  0  0  0  0  0  0  0  0  0
   18.7516   -4.1488   14.6672 H   0  0  0  0  0  0  0  0  0  0  0  0
   16.4361   -3.9350   14.9465 H   0  0  0  0  0  0  0  0  0  0  0  0
   16.5372   -2.3296   15.6069 H   0  0  0  0  0  0  0  0  0  0  0  0
   14.8069   -2.8743   17.2261 H   0  0  0  0  0  0  0  0  0  0  0  0
   14.2019   -3.8549   19.3894 H   0  0  0  0  0  0  0  0  0  0  0  0
   14.9438   -5.1288   21.2998 H   0  0  0  0  0  0  0  0  0  0  0  0
   16.3670   -6.0347   21.2985 H   0  0  0  0  0  0  0  0  0  0  0  0
   17.8132   -6.1783   19.3400 H   0  0  0  0  0  0  0  0  0  0  0  0
   18.4338   -5.2007   17.1817 H   0  0  0  0  0  0  0  0  0  0  0  0
   20.8200   -0.1019   14.7510 H   0  0  0  0  0  0  0  0  0  0  0  0
   19.2364    0.6070   14.3959 H   0  0  0  0  0  0  0  0  0  0  0  0
   20.6249    2.0603   15.7391 H   0  0  0  0  0  0  0  0  0  0  0  0
   20.9090    0.9661   17.0167 H   0  0  0  0  0  0  0  0  0  0  0  0
  1  2  1  0
  2  3  2  0
  2  4  1  0
  4  5  1  0
  5  6  1  0
  6  7  1  0
  7  8  1  0
  8  9  2  3
  9 10  1  0
 10 11  1  0
 11 12  2  0
 12 13  1  0
 13 14  2  0
 14 15  1  0
 14 16  1  0
 16 17  2  0
  7 18  1  0
 18 19  1  0
 19  4  1  0
 17 11  1  0
  1 20  1  0
  1 21  1  0
  1 22  1  0
  5 23  1  0
  5 24  1  0
  6 25  1  0
  6 26  1  0
  8 27  1  0
  9 28  1  0
 10 29  1  0
 10 30  1  0
 12 31  1  0
 13 32  1  0
 15 33  1  0
 15 34  1  0
 16 35  1  0
 17 36  1  0
 18 37  1  0
 18 38  1  0
 19 39  1  0
 19 40  1  0
M  END
>  <Energy>  (616) 
150.12393937853471

>  <compound_id>  (616) 
1912

>  <target_id>  (616) 
1

>  <reference_id>  (616) 
27

>  <inspiration_ids>  (616) 
[27, 146]

>  <energy_score>  (616) 
40.064282414405994

>  <distance_score>  (616) 
1.9313590459932874

>  <path>  (616) 
/opt/xchem-fragalysis-2/maxwin/BulkDock/SCRATCH/505732/C1912-P27/C1912-P27.minimised.mol

>  <scratch_subdir>  (616) 
/opt/xchem-fragalysis-2/maxwin/BulkDock/SCRATCH/505732/C1912-P27

>  <fragmenstein_runtime>  (616) 
7.09325647354126

>  <fragmenstein_outcome>  (616) 
too moved

>  <fragmenstein_mode>  (616) 
expansion

>  <fragmenstein_error>  (616) 


$$$$
C1912-P146
     RDKit          3D

 40 41  0  0  0  0  0  0  0  0999 V2000
   15.8296    3.0056   14.8302 C   0  0  0  0  0  0  0  0  0  0  0  0
   16.9437    2.0688   14.4180 C   0  0  0  0  0  0  0  0  0  0  0  0
   16.9320    1.4811   13.3991 O   0  0  0  0  0  0  0  0  0  0  0  0
   18.0056    2.1355   15.5016 N   0  0  0  0  0  0  0  0  0  0  0  0
   17.7938    1.0402   16.5546 C   0  0  0  0  0  0  0  0  0  0  0  0
   17.7045   -0.4412   16.1007 C   0  0  0  0  0  0  0  0  0  0  0  0
   18.9827   -0.8800   15.5590 N   0  0  0  0  0  0  0  0  0  0  0  0
   19.3355   -2.1953   15.3359 C   0  0  0  0  0  0  0  0  0  0  0  0
   18.6715   -3.3504   15.4526 C   0  0  0  0  0  0  0  0  0  0  0  0
   17.2162   -3.6135   15.7602 C   0  0  0  0  0  0  0  0  0  0  0  0
   16.8363   -4.0120   17.1775 C   0  0  0  0  0  0  0  0  0  0  0  0
   15.6389   -3.5390   17.7438 C   0  0  0  0  0  0  0  0  0  0  0  0
   15.2149   -3.9659   19.0107 C   0  0  0  0  0  0  0  0  0  0  0  0
   15.9868   -4.8530   19.7590 C   0  0  0  0  0  0  0  0  0  0  0  0
   15.4917   -5.3718   20.9621 N   0  0  0  0  0  0  0  0  0  0  0  0
   17.1375   -5.3827   19.1719 C   0  0  0  0  0  0  0  0  0  0  0  0
   17.5681   -4.9573   17.9050 C   0  0  0  0  0  0  0  0  0  0  0  0
   19.6583    0.2016   14.8399 C   0  0  0  0  0  0  0  0  0  0  0  0
   19.4032    1.5519   15.5502 C   0  0  0  0  0  0  0  0  0  0  0  0
   15.8965    3.2927   15.8827 H   0  0  0  0  0  0  0  0  0  0  0  0
   15.8823    3.9083   14.2157 H   0  0  0  0  0  0  0  0  0  0  0  0
   14.8708    2.5067   14.6667 H   0  0  0  0  0  0  0  0  0  0  0  0
   18.3752    1.1823   17.4825 H   0  0  0  0  0  0  0  0  0  0  0  0
   16.7739    1.2578   16.9113 H   0  0  0  0  0  0  0  0  0  0  0  0
   17.4335   -1.0404   16.9761 H   0  0  0  0  0  0  0  0  0  0  0  0
   16.9185   -0.5513   15.3458 H   0  0  0  0  0  0  0  0  0  0  0  0
   20.3762   -2.2692   15.0137 H   0  0  0  0  0  0  0  0  0  0  0  0
   19.2359   -4.2553   15.2264 H   0  0  0  0  0  0  0  0  0  0  0  0
   16.8975   -4.4384   15.1116 H   0  0  0  0  0  0  0  0  0  0  0  0
   16.6079   -2.7624   15.4402 H   0  0  0  0  0  0  0  0  0  0  0  0
   15.0063   -2.8516   17.1870 H   0  0  0  0  0  0  0  0  0  0  0  0
   14.2644   -3.6099   19.3993 H   0  0  0  0  0  0  0  0  0  0  0  0
   14.8818   -4.7268   21.4577 H   0  0  0  0  0  0  0  0  0  0  0  0
   16.2148   -5.7564   21.5623 H   0  0  0  0  0  0  0  0  0  0  0  0
   17.7120   -6.1459   19.6905 H   0  0  0  0  0  0  0  0  0  0  0  0
   18.4689   -5.3986   17.4845 H   0  0  0  0  0  0  0  0  0  0  0  0
   20.7402    0.0238   14.8117 H   0  0  0  0  0  0  0  0  0  0  0  0
   19.2994    0.2381   13.8048 H   0  0  0  0  0  0  0  0  0  0  0  0
   19.9435    2.2734   14.9168 H   0  0  0  0  0  0  0  0  0  0  0  0
   19.9328    1.6700   16.5110 H   0  0  0  0  0  0  0  0  0  0  0  0
  1  2  1  0
  2  3  2  0
  2  4  1  0
  4  5  1  0
  5  6  1  0
  6  7  1  0
  7  8  1  0
  8  9  2  3
  9 10  1  0
 10 11  1  0
 11 12  2  0
 12 13  1  0
 13 14  2  0
 14 15  1  0
 14 16  1  0
 16 17  2  0
  7 18  1  0
 18 19  1  0
 19  4  1  0
 17 11  1  0
  1 20  1  0
  1 21  1  0
  1 22  1  0
  5 23  1  0
  5 24  1  0
  6 25  1  0
  6 26  1  0
  8 27  1  0
  9 28  1  0
 10 29  1  0
 10 30  1  0
 12 31  1  0
 13 32  1  0
 15 33  1  0
 15 34  1  0
 16 35  1  0
 17 36  1  0
 18 37  1  0
 18 38  1  0
 19 39  1  0
 19 40  1  0
M  END
>  <Energy>  (617) 
150.25477086343142

>  <compound_id>  (617) 
1912

>  <target_id>  (617) 
1

>  <reference_id>  (617) 
146

>  <inspiration_ids>  (617) 
[27, 146]

>  <energy_score>  (617) 
40.19511389930349

>  <distance_score>  (617) 
1.9222787075046004

>  <path>  (617) 
/opt/xchem-fragalysis-2/maxwin/BulkDock/SCRATCH/505732/C1912-P146/C1912-P146.minimised.mol

>  <scratch_subdir>  (617) 
/opt/xchem-fragalysis-2/maxwin/BulkDock/SCRATCH/505732/C1912-P146

>  <fragmenstein_runtime>  (617) 
7.137511968612671

>  <fragmenstein_outcome>  (617) 
too moved

>  <fragmenstein_mode>  (617) 
expansion

>  <fragmenstein_error>  (617) 


$$$$
C1914-P27
     RDKit          3D

 56 58  0  0  0  0  0  0  0  0999 V2000
   14.8225   -4.0835   22.8106 C   0  0  0  0  0  0  0  0  0  0  0  0
   14.9012   -5.4433   22.1481 C   0  0  0  0  0  0  0  0  0  0  0  0
   14.2767   -6.3679   22.5209 O   0  0  0  0  0  0  0  0  0  0  0  0
   15.8839   -5.3216   20.9985 N   0  0  0  0  0  0  0  0  0  0  0  0
   15.1775   -4.9048   19.7101 C   0  0  0  0  0  0  0  0  0  0  0  0
   15.9851   -4.2280   18.5818 C   0  0  0  0  0  0  0  0  0  0  0  0
   16.9287   -5.1847   17.9762 N   0  0  0  0  0  0  0  0  0  0  0  0
   17.6810   -4.7654   16.8841 C   0  0  0  0  0  0  0  0  0  0  0  0
   17.1868   -4.1965   15.7749 C   0  0  0  0  0  0  0  0  0  0  0  0
   17.9690   -3.4567   14.7322 C   0  0  0  0  0  0  0  0  0  0  0  0
   18.5461   -2.1712   15.2892 C   0  0  0  0  0  0  0  0  0  0  0  0
   19.9073   -1.9235   15.0320 C   0  0  0  0  0  0  0  0  0  0  0  0
   20.5855   -0.9161   15.7083 C   0  0  0  0  0  0  0  0  0  0  0  0
   19.9195   -0.1436   16.6499 C   0  0  0  0  0  0  0  0  0  0  0  0
   18.5600   -0.3280   16.8757 C   0  0  0  0  0  0  0  0  0  0  0  0
   17.8457   -1.2996   16.1656 C   0  0  0  0  0  0  0  0  0  0  0  0
   16.3760   -1.3527   16.5039 C   0  0  0  0  0  0  0  0  0  0  0  0
   16.0740   -1.2805   17.6265 O   0  0  0  0  0  0  0  0  0  0  0  0
   15.5061   -1.5098   15.2464 N   0  0  0  0  0  0  0  0  0  0  0  0
   14.0674   -1.5165   15.0934 C   0  0  0  0  0  0  0  0  0  0  0  0
   13.3814   -2.5392   16.0083 C   0  0  0  0  0  0  0  0  0  0  0  0
   11.9049   -2.6130   15.6428 C   0  0  0  0  0  0  0  0  0  0  0  0
   11.2370   -1.2539   15.7180 C   0  0  0  0  0  0  0  0  0  0  0  0
   10.0661   -1.0974   16.0631 O   0  0  0  0  0  0  0  0  0  0  0  0
   11.9901   -0.1765   15.3348 N   0  0  0  0  0  0  0  0  0  0  0  0
   13.4400   -0.1550   15.4049 C   0  0  0  0  0  0  0  0  0  0  0  0
   17.5422   -5.9598   19.0585 C   0  0  0  0  0  0  0  0  0  0  0  0
   16.4334   -6.3750   20.0516 C   0  0  0  0  0  0  0  0  0  0  0  0
   13.8428   -3.6437   22.6051 H   0  0  0  0  0  0  0  0  0  0  0  0
   15.6000   -3.4048   22.4489 H   0  0  0  0  0  0  0  0  0  0  0  0
   14.9521   -4.2071   23.8895 H   0  0  0  0  0  0  0  0  0  0  0  0
   14.5160   -4.0936   20.0567 H   0  0  0  0  0  0  0  0  0  0  0  0
   14.4255   -5.6254   19.3603 H   0  0  0  0  0  0  0  0  0  0  0  0
   15.2797   -3.8600   17.8328 H   0  0  0  0  0  0  0  0  0  0  0  0
   16.5404   -3.3792   18.9983 H   0  0  0  0  0  0  0  0  0  0  0  0
   18.7561   -4.8497   17.0362 H   0  0  0  0  0  0  0  0  0  0  0  0
   16.1089   -4.1748   15.6491 H   0  0  0  0  0  0  0  0  0  0  0  0
   17.3375   -3.2275   13.8682 H   0  0  0  0  0  0  0  0  0  0  0  0
   18.7623   -4.1174   14.3601 H   0  0  0  0  0  0  0  0  0  0  0  0
   20.4671   -2.5623   14.3509 H   0  0  0  0  0  0  0  0  0  0  0  0
   21.6459   -0.7568   15.5270 H   0  0  0  0  0  0  0  0  0  0  0  0
   20.4589    0.6228   17.2020 H   0  0  0  0  0  0  0  0  0  0  0  0
   18.0536    0.3050   17.6028 H   0  0  0  0  0  0  0  0  0  0  0  0
   16.1020   -1.6220   14.4353 H   0  0  0  0  0  0  0  0  0  0  0  0
   13.8755   -1.7778   14.0453 H   0  0  0  0  0  0  0  0  0  0  0  0
   13.4884   -2.2425   17.0599 H   0  0  0  0  0  0  0  0  0  0  0  0
   13.8386   -3.5268   15.9219 H   0  0  0  0  0  0  0  0  0  0  0  0
   11.4021   -3.3023   16.3241 H   0  0  0  0  0  0  0  0  0  0  0  0
   11.7718   -2.9948   14.6243 H   0  0  0  0  0  0  0  0  0  0  0  0
   11.5040    0.7076   15.4265 H   0  0  0  0  0  0  0  0  0  0  0  0
   13.7941    0.6076   14.7031 H   0  0  0  0  0  0  0  0  0  0  0  0
   13.7070    0.1792   16.4147 H   0  0  0  0  0  0  0  0  0  0  0  0
   18.0156   -6.8583   18.6463 H   0  0  0  0  0  0  0  0  0  0  0  0
   18.3103   -5.3668   19.5703 H   0  0  0  0  0  0  0  0  0  0  0  0
   16.9512   -7.0341   20.7669 H   0  0  0  0  0  0  0  0  0  0  0  0
   15.6862   -7.0764   19.6442 H   0  0  0  0  0  0  0  0  0  0  0  0
  1  2  1  0
  2  3  2  0
  2  4  1  0
  4  5  1  0
  5  6  1  0
  6  7  1  0
  7  8  1  0
  8  9  2  3
  9 10  1  0
 10 11  1  0
 11 12  2  0
 12 13  1  0
 13 14  2  0
 14 15  1  0
 15 16  2  0
 16 17  1  0
 17 18  2  0
 17 19  1  0
 19 20  1  0
 20 21  1  0
 21 22  1  0
 22 23  1  0
 23 24  2  0
 23 25  1  0
 25 26  1  0
  7 27  1  0
 27 28  1  0
 28  4  1  0
 16 11  1  0
 26 20  1  0
  1 29  1  0
  1 30  1  0
  1 31  1  0
  5 32  1  0
  5 33  1  0
  6 34  1  0
  6 35  1  0
  8 36  1  0
  9 37  1  0
 10 38  1  0
 10 39  1  0
 12 40  1  0
 13 41  1  0
 14 42  1  0
 15 43  1  0
 19 44  1  0
 20 45  1  0
 21 46  1  0
 21 47  1  0
 22 48  1  0
 22 49  1  0
 25 50  1  0
 26 51  1  0
 26 52  1  0
 27 53  1  0
 27 54  1  0
 28 55  1  0
 28 56  1  0
M  END
>  <Energy>  (618) 
167.59811431044307

>  <compound_id>  (618) 
1914

>  <target_id>  (618) 
1

>  <reference_id>  (618) 
27

>  <inspiration_ids>  (618) 
[27, 191]

>  <energy_score>  (618) 
43.693598088129704

>  <distance_score>  (618) 
1.891765655860976

>  <path>  (618) 
/opt/xchem-fragalysis-2/maxwin/BulkDock/SCRATCH/505732/C1914-P27/C1914-P27.minimised.mol

>  <scratch_subdir>  (618) 
/opt/xchem-fragalysis-2/maxwin/BulkDock/SCRATCH/505732/C1914-P27

>  <fragmenstein_runtime>  (618) 
11.712255239486694

>  <fragmenstein_outcome>  (618) 
too moved

>  <fragmenstein_mode>  (618) 
expansion

>  <fragmenstein_error>  (618) 


$$$$
C1914-P191
     RDKit          3D

 56 58  0  0  0  0  0  0  0  0999 V2000
   13.8750   -4.1149   21.9297 C   0  0  0  0  0  0  0  0  0  0  0  0
   14.8364   -5.2856   21.8928 C   0  0  0  0  0  0  0  0  0  0  0  0
   14.7346   -6.2135   22.6082 O   0  0  0  0  0  0  0  0  0  0  0  0
   15.8541   -4.9897   20.8094 N   0  0  0  0  0  0  0  0  0  0  0  0
   15.3931   -5.5231   19.4602 C   0  0  0  0  0  0  0  0  0  0  0  0
   15.9037   -4.7990   18.2024 C   0  0  0  0  0  0  0  0  0  0  0  0
   17.3421   -5.0206   18.0266 N   0  0  0  0  0  0  0  0  0  0  0  0
   18.0151   -4.4647   16.9437 C   0  0  0  0  0  0  0  0  0  0  0  0
   17.4856   -4.0356   15.7879 C   0  0  0  0  0  0  0  0  0  0  0  0
   18.1902   -3.1910   14.7671 C   0  0  0  0  0  0  0  0  0  0  0  0
   18.7412   -1.9271   15.3828 C   0  0  0  0  0  0  0  0  0  0  0  0
   20.0939   -1.6370   15.1366 C   0  0  0  0  0  0  0  0  0  0  0  0
   20.7481   -0.6587   15.8740 C   0  0  0  0  0  0  0  0  0  0  0  0
   20.0665    0.0378   16.8641 C   0  0  0  0  0  0  0  0  0  0  0  0
   18.7128   -0.1901   17.0829 C   0  0  0  0  0  0  0  0  0  0  0  0
   18.0229   -1.1305   16.3141 C   0  0  0  0  0  0  0  0  0  0  0  0
   16.5566   -1.2486   16.6441 C   0  0  0  0  0  0  0  0  0  0  0  0
   16.2455   -1.2654   17.7663 O   0  0  0  0  0  0  0  0  0  0  0  0
   15.6947   -1.2701   15.3701 N   0  0  0  0  0  0  0  0  0  0  0  0
   14.2617   -1.4134   15.2050 C   0  0  0  0  0  0  0  0  0  0  0  0
   13.6421   -2.4402   16.1612 C   0  0  0  0  0  0  0  0  0  0  0  0
   12.1745   -2.6418   15.8045 C   0  0  0  0  0  0  0  0  0  0  0  0
   11.4111   -1.3320   15.7855 C   0  0  0  0  0  0  0  0  0  0  0  0
   10.2278   -1.2405   16.1048 O   0  0  0  0  0  0  0  0  0  0  0  0
   12.0854   -0.2305   15.3364 N   0  0  0  0  0  0  0  0  0  0  0  0
   13.5250   -0.0918   15.4378 C   0  0  0  0  0  0  0  0  0  0  0  0
   18.0106   -5.0790   19.3373 C   0  0  0  0  0  0  0  0  0  0  0  0
   17.1013   -5.7469   20.3920 C   0  0  0  0  0  0  0  0  0  0  0  0
   12.9086   -4.4357   21.5313 H   0  0  0  0  0  0  0  0  0  0  0  0
   14.2378   -3.2673   21.3415 H   0  0  0  0  0  0  0  0  0  0  0  0
   13.7557   -3.7858   22.9657 H   0  0  0  0  0  0  0  0  0  0  0  0
   14.3155   -5.2927   19.4613 H   0  0  0  0  0  0  0  0  0  0  0  0
   15.3698   -6.6218   19.3671 H   0  0  0  0  0  0  0  0  0  0  0  0
   15.3528   -5.1895   17.3397 H   0  0  0  0  0  0  0  0  0  0  0  0
   15.6942   -3.7285   18.2954 H   0  0  0  0  0  0  0  0  0  0  0  0
   19.0758   -4.3087   17.1429 H   0  0  0  0  0  0  0  0  0  0  0  0
   16.4278   -4.1879   15.6222 H   0  0  0  0  0  0  0  0  0  0  0  0
   17.5064   -2.9212   13.9559 H   0  0  0  0  0  0  0  0  0  0  0  0
   18.9813   -3.7941   14.3043 H   0  0  0  0  0  0  0  0  0  0  0  0
   20.6672   -2.2213   14.4188 H   0  0  0  0  0  0  0  0  0  0  0  0
   21.8044   -0.4634   15.7032 H   0  0  0  0  0  0  0  0  0  0  0  0
   20.5914    0.7801   17.4617 H   0  0  0  0  0  0  0  0  0  0  0  0
   18.1941    0.3818   17.8504 H   0  0  0  0  0  0  0  0  0  0  0  0
   16.2948   -1.3287   14.5574 H   0  0  0  0  0  0  0  0  0  0  0  0
   14.1078   -1.7417   14.1694 H   0  0  0  0  0  0  0  0  0  0  0  0
   13.7206   -2.0905   17.1989 H   0  0  0  0  0  0  0  0  0  0  0  0
   14.1763   -3.3888   16.1192 H   0  0  0  0  0  0  0  0  0  0  0  0
   11.7158   -3.3135   16.5351 H   0  0  0  0  0  0  0  0  0  0  0  0
   12.0743   -3.1027   14.8153 H   0  0  0  0  0  0  0  0  0  0  0  0
   11.5287    0.6165   15.3681 H   0  0  0  0  0  0  0  0  0  0  0  0
   13.8369    0.6629   14.7079 H   0  0  0  0  0  0  0  0  0  0  0  0
   13.7425    0.3069   16.4361 H   0  0  0  0  0  0  0  0  0  0  0  0
   18.9429   -5.6495   19.2525 H   0  0  0  0  0  0  0  0  0  0  0  0
   18.2628   -4.0622   19.6648 H   0  0  0  0  0  0  0  0  0  0  0  0
   17.6903   -5.7013   21.3222 H   0  0  0  0  0  0  0  0  0  0  0  0
   16.9914   -6.8409   20.2901 H   0  0  0  0  0  0  0  0  0  0  0  0
  1  2  1  0
  2  3  2  0
  2  4  1  0
  4  5  1  0
  5  6  1  0
  6  7  1  0
  7  8  1  0
  8  9  2  3
  9 10  1  0
 10 11  1  0
 11 12  2  0
 12 13  1  0
 13 14  2  0
 14 15  1  0
 15 16  2  0
 16 17  1  0
 17 18  2  0
 17 19  1  0
 19 20  1  0
 20 21  1  0
 21 22  1  0
 22 23  1  0
 23 24  2  0
 23 25  1  0
 25 26  1  0
  7 27  1  0
 27 28  1  0
 28  4  1  0
 16 11  1  0
 26 20  1  0
  1 29  1  0
  1 30  1  0
  1 31  1  0
  5 32  1  0
  5 33  1  0
  6 34  1  0
  6 35  1  0
  8 36  1  0
  9 37  1  0
 10 38  1  0
 10 39  1  0
 12 40  1  0
 13 41  1  0
 14 42  1  0
 15 43  1  0
 19 44  1  0
 20 45  1  0
 21 46  1  0
 21 47  1  0
 22 48  1  0
 22 49  1  0
 25 50  1  0
 26 51  1  0
 26 52  1  0
 27 53  1  0
 27 54  1  0
 28 55  1  0
 28 56  1  0
M  END
>  <Energy>  (619) 
166.7194813931352

>  <compound_id>  (619) 
1914

>  <target_id>  (619) 
1

>  <reference_id>  (619) 
191

>  <inspiration_ids>  (619) 
[27, 191]

>  <energy_score>  (619) 
42.814965170825246

>  <distance_score>  (619) 
1.879092740892157

>  <path>  (619) 
/opt/xchem-fragalysis-2/maxwin/BulkDock/SCRATCH/505732/C1914-P191/C1914-P191.minimised.mol

>  <scratch_subdir>  (619) 
/opt/xchem-fragalysis-2/maxwin/BulkDock/SCRATCH/505732/C1914-P191

>  <fragmenstein_runtime>  (619) 
9.58457636833191

>  <fragmenstein_outcome>  (619) 
too moved

>  <fragmenstein_mode>  (619) 
expansion

>  <fragmenstein_error>  (619) 


$$$$
C1915-P28
     RDKit          3D

 57 58  0  0  0  0  0  0  0  0999 V2000
   -9.8629  -31.6058   14.0209 C   0  0  0  0  0  0  0  0  0  0  0  0
  -10.8855  -31.2914   12.9482 C   0  0  0  0  0  0  0  0  0  0  0  0
  -11.2579  -32.1521   12.1962 O   0  0  0  0  0  0  0  0  0  0  0  0
  -11.2602  -29.9192   13.0452 N   0  0  0  0  0  0  0  0  0  0  0  0
  -10.3322  -29.0538   12.1735 C   0  0  0  0  0  0  0  0  0  0  0  0
  -10.2346  -29.3307   10.6483 C   0  0  0  0  0  0  0  0  0  0  0  0
  -11.4974  -28.9538   10.0134 N   0  0  0  0  0  0  0  0  0  0  0  0
  -11.6372  -28.7853    8.6487 C   0  0  0  0  0  0  0  0  0  0  0  0
  -10.9759  -28.0784    7.7125 C   0  0  0  0  0  0  0  0  0  0  0  0
   -9.7470  -27.1020    7.7252 C   0  0  0  0  0  0  0  0  0  0  0  0
   -8.5887  -28.1010    7.4594 C   0  0  0  0  0  0  0  0  0  0  0  0
   -9.6342  -26.3558    9.1157 C   0  0  0  0  0  0  0  0  0  0  0  0
  -10.8426  -25.8874    9.7066 C   0  0  0  0  0  0  0  0  0  0  0  0
  -10.9001  -25.2682   10.9605 C   0  0  0  0  0  0  0  0  0  0  0  0
   -9.7406  -25.1007   11.6919 C   0  0  0  0  0  0  0  0  0  0  0  0
   -8.5346  -25.5367   11.1519 C   0  0  0  0  0  0  0  0  0  0  0  0
   -8.4482  -26.1220    9.8630 C   0  0  0  0  0  0  0  0  0  0  0  0
   -7.0508  -26.4597    9.4136 C   0  0  0  0  0  0  0  0  0  0  0  0
   -9.8455  -26.0199    6.4807 C   0  0  0  0  0  0  0  0  0  0  0  0
   -8.6157  -25.0769    6.4361 C   0  0  0  0  0  0  0  0  0  0  0  0
  -11.1346  -25.1612    6.5708 C   0  0  0  0  0  0  0  0  0  0  0  0
   -9.9173  -26.6579    5.0526 C   0  0  0  0  0  0  0  0  0  0  0  0
   -8.7486  -27.3788    4.6897 O   0  0  0  0  0  0  0  0  0  0  0  0
  -12.6078  -29.4568   10.8244 C   0  0  0  0  0  0  0  0  0  0  0  0
  -12.3256  -29.1309   12.3119 C   0  0  0  0  0  0  0  0  0  0  0  0
   -8.9003  -31.8138   13.5460 H   0  0  0  0  0  0  0  0  0  0  0  0
  -10.1951  -32.4836   14.5824 H   0  0  0  0  0  0  0  0  0  0  0  0
   -9.7393  -30.7775   14.7249 H   0  0  0  0  0  0  0  0  0  0  0  0
   -9.3304  -29.3100   12.5533 H   0  0  0  0  0  0  0  0  0  0  0  0
  -10.3963  -27.9821   12.4201 H   0  0  0  0  0  0  0  0  0  0  0  0
  -10.0250  -30.3898   10.4581 H   0  0  0  0  0  0  0  0  0  0  0  0
   -9.3943  -28.7634   10.2531 H   0  0  0  0  0  0  0  0  0  0  0  0
  -12.5183  -29.3249    8.2940 H   0  0  0  0  0  0  0  0  0  0  0  0
  -11.3884  -28.2220    6.7163 H   0  0  0  0  0  0  0  0  0  0  0  0
   -7.6630  -27.6113    7.1527 H   0  0  0  0  0  0  0  0  0  0  0  0
   -8.8340  -28.8108    6.6591 H   0  0  0  0  0  0  0  0  0  0  0  0
   -8.3674  -28.7214    8.3331 H   0  0  0  0  0  0  0  0  0  0  0  0
  -11.7887  -26.0272    9.1856 H   0  0  0  0  0  0  0  0  0  0  0  0
  -11.8557  -24.9395   11.3582 H   0  0  0  0  0  0  0  0  0  0  0  0
   -9.7680  -24.6356   12.6732 H   0  0  0  0  0  0  0  0  0  0  0  0
   -7.6271  -25.3912   11.7369 H   0  0  0  0  0  0  0  0  0  0  0  0
   -6.8659  -27.5338    9.4921 H   0  0  0  0  0  0  0  0  0  0  0  0
   -6.8577  -26.1022    8.4015 H   0  0  0  0  0  0  0  0  0  0  0  0
   -6.2998  -25.9639   10.0406 H   0  0  0  0  0  0  0  0  0  0  0  0
   -8.7832  -24.2363    5.7527 H   0  0  0  0  0  0  0  0  0  0  0  0
   -8.3702  -24.6674    7.4093 H   0  0  0  0  0  0  0  0  0  0  0  0
   -7.7150  -25.5940    6.0899 H   0  0  0  0  0  0  0  0  0  0  0  0
  -12.0351  -25.7839    6.5446 H   0  0  0  0  0  0  0  0  0  0  0  0
  -11.1796  -24.5492    7.4685 H   0  0  0  0  0  0  0  0  0  0  0  0
  -11.2047  -24.4648    5.7261 H   0  0  0  0  0  0  0  0  0  0  0  0
  -10.7753  -27.3268    4.9456 H   0  0  0  0  0  0  0  0  0  0  0  0
  -10.0424  -25.8698    4.2990 H   0  0  0  0  0  0  0  0  0  0  0  0
   -8.8746  -27.6905    3.7774 H   0  0  0  0  0  0  0  0  0  0  0  0
  -13.5406  -28.9613   10.5291 H   0  0  0  0  0  0  0  0  0  0  0  0
  -12.7358  -30.5348   10.6733 H   0  0  0  0  0  0  0  0  0  0  0  0
  -13.2337  -29.4789   12.8281 H   0  0  0  0  0  0  0  0  0  0  0  0
  -12.3271  -28.0527   12.5435 H   0  0  0  0  0  0  0  0  0  0  0  0
  1  2  1  0
  2  3  2  0
  2  4  1  0
  4  5  1  0
  5  6  1  0
  6  7  1  0
  7  8  1  0
  8  9  2  3
  9 10  1  0
 10 11  1  0
 10 12  1  0
 12 13  2  0
 13 14  1  0
 14 15  2  0
 15 16  1  0
 16 17  2  0
 17 18  1  0
 10 19  1  0
 19 20  1  0
 19 21  1  0
 19 22  1  0
 22 23  1  0
  7 24  1  0
 24 25  1  0
 25  4  1  0
 17 12  1  0
  1 26  1  0
  1 27  1  0
  1 28  1  0
  5 29  1  0
  5 30  1  0
  6 31  1  0
  6 32  1  0
  8 33  1  0
  9 34  1  0
 11 35  1  0
 11 36  1  0
 11 37  1  0
 13 38  1  0
 14 39  1  0
 15 40  1  0
 16 41  1  0
 18 42  1  0
 18 43  1  0
 18 44  1  0
 20 45  1  0
 20 46  1  0
 20 47  1  0
 21 48  1  0
 21 49  1  0
 21 50  1  0
 22 51  1  0
 22 52  1  0
 23 53  1  0
 24 54  1  0
 24 55  1  0
 25 56  1  0
 25 57  1  0
M  END
>  <Energy>  (620) 
203.9052588588163

>  <compound_id>  (620) 
1915

>  <target_id>  (620) 
1

>  <reference_id>  (620) 
28

>  <inspiration_ids>  (620) 
[28, 2]

>  <energy_score>  (620) 
-15.152472253244497

>  <distance_score>  (620) 
4.502498151836272

>  <path>  (620) 
/opt/xchem-fragalysis-2/maxwin/BulkDock/SCRATCH/505732/C1915-P28/C1915-P28.minimised.mol

>  <scratch_subdir>  (620) 
/opt/xchem-fragalysis-2/maxwin/BulkDock/SCRATCH/505732/C1915-P28

>  <fragmenstein_runtime>  (620) 
26.780637502670288

>  <fragmenstein_outcome>  (620) 
too moved

>  <fragmenstein_mode>  (620) 
expansion

>  <fragmenstein_error>  (620) 


$$$$
C1915-P2
     RDKit          3D

 57 58  0  0  0  0  0  0  0  0999 V2000
  -10.2641  -27.5933   15.2112 C   0  0  0  0  0  0  0  0  0  0  0  0
  -11.6181  -27.1464   14.7039 C   0  0  0  0  0  0  0  0  0  0  0  0
  -12.5602  -27.0416   15.3991 O   0  0  0  0  0  0  0  0  0  0  0  0
  -11.4595  -26.8792   13.2232 N   0  0  0  0  0  0  0  0  0  0  0  0
  -11.7546  -28.1289   12.4021 C   0  0  0  0  0  0  0  0  0  0  0  0
  -10.9865  -28.2334   11.0722 C   0  0  0  0  0  0  0  0  0  0  0  0
  -11.3050  -27.1308   10.1413 N   0  0  0  0  0  0  0  0  0  0  0  0
  -10.5606  -27.0281    8.9668 C   0  0  0  0  0  0  0  0  0  0  0  0
  -10.1455  -26.0710    8.0886 C   0  0  0  0  0  0  0  0  0  0  0  0
  -10.2933  -24.5159    7.7704 C   0  0  0  0  0  0  0  0  0  0  0  0
  -11.8334  -24.2583    7.8561 C   0  0  0  0  0  0  0  0  0  0  0  0
   -9.6083  -23.5347    8.7780 C   0  0  0  0  0  0  0  0  0  0  0  0
   -9.9624  -22.1619    8.6734 C   0  0  0  0  0  0  0  0  0  0  0  0
   -9.3583  -21.1496    9.4088 C   0  0  0  0  0  0  0  0  0  0  0  0
   -8.4845  -21.4844   10.4145 C   0  0  0  0  0  0  0  0  0  0  0  0
   -8.1690  -22.8231   10.6133 C   0  0  0  0  0  0  0  0  0  0  0  0
   -8.6498  -23.8492    9.7663 C   0  0  0  0  0  0  0  0  0  0  0  0
   -8.0576  -25.2090   10.0163 C   0  0  0  0  0  0  0  0  0  0  0  0
   -9.8006  -24.1535    6.1972 C   0  0  0  0  0  0  0  0  0  0  0  0
   -9.9075  -22.6568    5.7594 C   0  0  0  0  0  0  0  0  0  0  0  0
  -10.6981  -24.9475    5.1978 C   0  0  0  0  0  0  0  0  0  0  0  0
   -8.3395  -24.5682    5.8657 C   0  0  0  0  0  0  0  0  0  0  0  0
   -7.3405  -23.8344    6.5511 O   0  0  0  0  0  0  0  0  0  0  0  0
  -11.8708  -25.9706   10.8215 C   0  0  0  0  0  0  0  0  0  0  0  0
  -12.4277  -26.3041   12.2198 C   0  0  0  0  0  0  0  0  0  0  0  0
  -10.3669  -28.5748   15.6812 H   0  0  0  0  0  0  0  0  0  0  0  0
   -9.9072  -26.8663   15.9412 H   0  0  0  0  0  0  0  0  0  0  0  0
   -9.5225  -27.6674   14.4109 H   0  0  0  0  0  0  0  0  0  0  0  0
  -12.8061  -28.4649   12.3625 H   0  0  0  0  0  0  0  0  0  0  0  0
  -11.3228  -28.9404   13.0109 H   0  0  0  0  0  0  0  0  0  0  0  0
  -11.2175  -29.1940   10.5967 H   0  0  0  0  0  0  0  0  0  0  0  0
   -9.9097  -28.2168   11.2869 H   0  0  0  0  0  0  0  0  0  0  0  0
  -10.1699  -28.0241    8.7341 H   0  0  0  0  0  0  0  0  0  0  0  0
   -9.5075  -26.5297    7.3322 H   0  0  0  0  0  0  0  0  0  0  0  0
  -12.4170  -25.1029    7.4705 H   0  0  0  0  0  0  0  0  0  0  0  0
  -12.1500  -23.3812    7.2842 H   0  0  0  0  0  0  0  0  0  0  0  0
  -12.1577  -24.0692    8.8826 H   0  0  0  0  0  0  0  0  0  0  0  0
  -10.7265  -21.8324    7.9779 H   0  0  0  0  0  0  0  0  0  0  0  0
   -9.6206  -20.1164    9.2183 H   0  0  0  0  0  0  0  0  0  0  0  0
   -8.0042  -20.7207   11.0217 H   0  0  0  0  0  0  0  0  0  0  0  0
   -7.4503  -23.0505   11.4017 H   0  0  0  0  0  0  0  0  0  0  0  0
   -8.7343  -25.8232   10.6124 H   0  0  0  0  0  0  0  0  0  0  0  0
   -7.7867  -25.7035    9.0804 H   0  0  0  0  0  0  0  0  0  0  0  0
   -7.1215  -25.1356   10.5830 H   0  0  0  0  0  0  0  0  0  0  0  0
  -10.9185  -22.2596    5.8809 H   0  0  0  0  0  0  0  0  0  0  0  0
   -9.6795  -22.5603    4.6893 H   0  0  0  0  0  0  0  0  0  0  0  0
   -9.1867  -22.0106    6.2665 H   0  0  0  0  0  0  0  0  0  0  0  0
  -11.7417  -24.6200    5.2386 H   0  0  0  0  0  0  0  0  0  0  0  0
  -10.3661  -24.7979    4.1630 H   0  0  0  0  0  0  0  0  0  0  0  0
  -10.6705  -26.0248    5.3864 H   0  0  0  0  0  0  0  0  0  0  0  0
   -8.1393  -24.4284    4.7962 H   0  0  0  0  0  0  0  0  0  0  0  0
   -8.1591  -25.6282    6.0602 H   0  0  0  0  0  0  0  0  0  0  0  0
   -7.5835  -23.7937    7.4921 H   0  0  0  0  0  0  0  0  0  0  0  0
  -12.6981  -25.5718   10.2286 H   0  0  0  0  0  0  0  0  0  0  0  0
  -11.1089  -25.1915   10.9291 H   0  0  0  0  0  0  0  0  0  0  0  0
  -12.6337  -25.3177   12.6676 H   0  0  0  0  0  0  0  0  0  0  0  0
  -13.4516  -26.7184   12.2276 H   0  0  0  0  0  0  0  0  0  0  0  0
  1  2  1  0
  2  3  2  0
  2  4  1  0
  4  5  1  0
  5  6  1  0
  6  7  1  0
  7  8  1  0
  8  9  2  3
  9 10  1  0
 10 11  1  0
 10 12  1  0
 12 13  2  0
 13 14  1  0
 14 15  2  0
 15 16  1  0
 16 17  2  0
 17 18  1  0
 10 19  1  0
 19 20  1  0
 19 21  1  0
 19 22  1  0
 22 23  1  0
  7 24  1  0
 24 25  1  0
 25  4  1  0
 17 12  1  0
  1 26  1  0
  1 27  1  0
  1 28  1  0
  5 29  1  0
  5 30  1  0
  6 31  1  0
  6 32  1  0
  8 33  1  0
  9 34  1  0
 11 35  1  0
 11 36  1  0
 11 37  1  0
 13 38  1  0
 14 39  1  0
 15 40  1  0
 16 41  1  0
 18 42  1  0
 18 43  1  0
 18 44  1  0
 20 45  1  0
 20 46  1  0
 20 47  1  0
 21 48  1  0
 21 49  1  0
 21 50  1  0
 22 51  1  0
 22 52  1  0
 23 53  1  0
 24 54  1  0
 24 55  1  0
 25 56  1  0
 25 57  1  0
M  END
>  <Energy>  (621) 
229.91086622338653

>  <compound_id>  (621) 
1915

>  <target_id>  (621) 
1

>  <reference_id>  (621) 
2

>  <inspiration_ids>  (621) 
[28, 2]

>  <energy_score>  (621) 
-8.876433422397326

>  <distance_score>  (621) 
2.6996335156284994

>  <path>  (621) 
/opt/xchem-fragalysis-2/maxwin/BulkDock/SCRATCH/505732/C1915-P2/C1915-P2.minimised.mol

>  <scratch_subdir>  (621) 
/opt/xchem-fragalysis-2/maxwin/BulkDock/SCRATCH/505732/C1915-P2

>  <fragmenstein_runtime>  (621) 
22.071431159973145

>  <fragmenstein_outcome>  (621) 
too moved

>  <fragmenstein_mode>  (621) 
expansion

>  <fragmenstein_error>  (621) 


$$$$
C24-P28
     RDKit          3D

 38 39  0  0  0  0  0  0  0  0999 V2000
   -7.0141  -26.4061   10.6158 C   0  0  0  0  0  0  0  0  0  0  0  0
   -8.3475  -25.8275   11.0396 C   0  0  0  0  0  0  0  0  0  0  0  0
   -8.4756  -24.7028   11.3535 O   0  0  0  0  0  0  0  0  0  0  0  0
   -9.3687  -26.9349   10.9340 N   0  0  0  0  0  0  0  0  0  0  0  0
   -9.4979  -27.6965   12.2560 C   0  0  0  0  0  0  0  0  0  0  0  0
   -9.9948  -29.1543   12.1976 C   0  0  0  0  0  0  0  0  0  0  0  0
  -11.4228  -29.1335   11.9221 N   0  0  0  0  0  0  0  0  0  0  0  0
  -12.1971  -30.2405   12.1625 C   0  0  0  0  0  0  0  0  0  0  0  0
  -13.3286  -30.2617   12.8818 C   0  0  0  0  0  0  0  0  0  0  0  0
  -14.0173  -29.0726   13.4983 C   0  0  0  0  0  0  0  0  0  0  0  0
  -13.3050  -28.4339   14.6742 C   0  0  0  0  0  0  0  0  0  0  0  0
  -13.3134  -29.0239   15.9455 C   0  0  0  0  0  0  0  0  0  0  0  0
  -12.7085  -28.3848   17.0318 C   0  0  0  0  0  0  0  0  0  0  0  0
  -12.0706  -27.1636   16.8523 C   0  0  0  0  0  0  0  0  0  0  0  0
  -12.0189  -26.5816   15.5911 C   0  0  0  0  0  0  0  0  0  0  0  0
  -12.6446  -27.2063   14.5160 C   0  0  0  0  0  0  0  0  0  0  0  0
  -11.7056  -28.1921   10.8437 C   0  0  0  0  0  0  0  0  0  0  0  0
  -10.8781  -26.9073   11.1002 C   0  0  0  0  0  0  0  0  0  0  0  0
   -6.3173  -26.3443   11.4563 H   0  0  0  0  0  0  0  0  0  0  0  0
   -6.6288  -25.8253    9.7731 H   0  0  0  0  0  0  0  0  0  0  0  0
   -7.0966  -27.4513   10.3047 H   0  0  0  0  0  0  0  0  0  0  0  0
   -9.9000  -27.1018   13.0952 H   0  0  0  0  0  0  0  0  0  0  0  0
   -8.4474  -27.8017   12.5734 H   0  0  0  0  0  0  0  0  0  0  0  0
   -9.4593  -29.7133   11.4203 H   0  0  0  0  0  0  0  0  0  0  0  0
   -9.8015  -29.6377   13.1629 H   0  0  0  0  0  0  0  0  0  0  0  0
  -11.7490  -31.1744   11.8268 H   0  0  0  0  0  0  0  0  0  0  0  0
  -13.8074  -31.2230   13.0494 H   0  0  0  0  0  0  0  0  0  0  0  0
  -15.0149  -29.3854   13.8349 H   0  0  0  0  0  0  0  0  0  0  0  0
  -14.2141  -28.3205   12.7238 H   0  0  0  0  0  0  0  0  0  0  0  0
  -13.8146  -29.9765   16.0989 H   0  0  0  0  0  0  0  0  0  0  0  0
  -12.7394  -28.8443   18.0158 H   0  0  0  0  0  0  0  0  0  0  0  0
  -11.6063  -26.6747   17.6988 H   0  0  0  0  0  0  0  0  0  0  0  0
  -11.4974  -25.6414   15.4403 H   0  0  0  0  0  0  0  0  0  0  0  0
  -12.6402  -26.7196   13.5470 H   0  0  0  0  0  0  0  0  0  0  0  0
  -12.7706  -27.9376   10.8151 H   0  0  0  0  0  0  0  0  0  0  0  0
  -11.4320  -28.6319    9.8768 H   0  0  0  0  0  0  0  0  0  0  0  0
  -11.2221  -26.2880   11.9437 H   0  0  0  0  0  0  0  0  0  0  0  0
  -11.1564  -26.2501   10.2601 H   0  0  0  0  0  0  0  0  0  0  0  0
  1  2  1  0
  2  3  2  0
  2  4  1  0
  4  5  1  0
  5  6  1  0
  6  7  1  0
  7  8  1  0
  8  9  2  3
  9 10  1  0
 10 11  1  0
 11 12  2  0
 12 13  1  0
 13 14  2  0
 14 15  1  0
 15 16  2  0
  7 17  1  0
 17 18  1  0
 18  4  1  0
 16 11  1  0
  1 19  1  0
  1 20  1  0
  1 21  1  0
  5 22  1  0
  5 23  1  0
  6 24  1  0
  6 25  1  0
  8 26  1  0
  9 27  1  0
 10 28  1  0
 10 29  1  0
 12 30  1  0
 13 31  1  0
 14 32  1  0
 15 33  1  0
 16 34  1  0
 17 35  1  0
 17 36  1  0
 18 37  1  0
 18 38  1  0
M  END
>  <Energy>  (622) 
163.74272327516746

>  <compound_id>  (622) 
24

>  <target_id>  (622) 
1

>  <reference_id>  (622) 
28

>  <inspiration_ids>  (622) 
[28, 9]

>  <energy_score>  (622) 
61.54017261183391

>  <distance_score>  (622) 
2.7015169890291864

>  <path>  (622) 
/opt/xchem-fragalysis-2/maxwin/BulkDock/SCRATCH/505732/C24-P28/C24-P28.minimised.mol

>  <scratch_subdir>  (622) 
/opt/xchem-fragalysis-2/maxwin/BulkDock/SCRATCH/505732/C24-P28

>  <fragmenstein_runtime>  (622) 
16.935489892959595

>  <fragmenstein_outcome>  (622) 
too moved

>  <fragmenstein_mode>  (622) 
expansion

>  <fragmenstein_error>  (622) 


$$$$
C24-P9
     RDKit          3D

 38 39  0  0  0  0  0  0  0  0999 V2000
   -7.2682  -26.1052   10.6316 C   0  0  0  0  0  0  0  0  0  0  0  0
   -8.6423  -25.6499   11.0769 C   0  0  0  0  0  0  0  0  0  0  0  0
   -8.8624  -24.5462   11.4129 O   0  0  0  0  0  0  0  0  0  0  0  0
   -9.5683  -26.8340   10.9474 N   0  0  0  0  0  0  0  0  0  0  0  0
   -9.6346  -27.6295   12.2531 C   0  0  0  0  0  0  0  0  0  0  0  0
  -10.0265  -29.1178   12.1847 C   0  0  0  0  0  0  0  0  0  0  0  0
  -11.4578  -29.1834   11.9415 N   0  0  0  0  0  0  0  0  0  0  0  0
  -12.1710  -30.3163   12.2384 C   0  0  0  0  0  0  0  0  0  0  0  0
  -13.2726  -30.3727   13.0018 C   0  0  0  0  0  0  0  0  0  0  0  0
  -14.0090  -29.2045   13.6026 C   0  0  0  0  0  0  0  0  0  0  0  0
  -13.3344  -28.5330   14.7823 C   0  0  0  0  0  0  0  0  0  0  0  0
  -13.4012  -29.0687   16.0743 C   0  0  0  0  0  0  0  0  0  0  0  0
  -12.8379  -28.3868   17.1585 C   0  0  0  0  0  0  0  0  0  0  0  0
  -12.1758  -27.1816   16.9582 C   0  0  0  0  0  0  0  0  0  0  0  0
  -12.0601  -26.6594   15.6767 C   0  0  0  0  0  0  0  0  0  0  0  0
  -12.6525  -27.3210   14.6049 C   0  0  0  0  0  0  0  0  0  0  0  0
  -11.8129  -28.2725   10.8612 C   0  0  0  0  0  0  0  0  0  0  0  0
  -11.0740  -26.9337   11.1112 C   0  0  0  0  0  0  0  0  0  0  0  0
   -6.5526  -25.9124   11.4355 H   0  0  0  0  0  0  0  0  0  0  0  0
   -6.9816  -25.5421    9.7391 H   0  0  0  0  0  0  0  0  0  0  0  0
   -7.2426  -27.1717   10.3913 H   0  0  0  0  0  0  0  0  0  0  0  0
  -10.0689  -27.0743   13.1026 H   0  0  0  0  0  0  0  0  0  0  0  0
   -8.5766  -27.6647   12.5607 H   0  0  0  0  0  0  0  0  0  0  0  0
   -9.4728  -29.6292   11.3880 H   0  0  0  0  0  0  0  0  0  0  0  0
   -9.7788  -29.5982   13.1389 H   0  0  0  0  0  0  0  0  0  0  0  0
  -11.6863  -31.2379   11.9189 H   0  0  0  0  0  0  0  0  0  0  0  0
  -13.6916  -31.3526   13.2167 H   0  0  0  0  0  0  0  0  0  0  0  0
  -15.0009  -29.5488   13.9250 H   0  0  0  0  0  0  0  0  0  0  0  0
  -14.2208  -28.4616   12.8232 H   0  0  0  0  0  0  0  0  0  0  0  0
  -13.9211  -30.0078   16.2480 H   0  0  0  0  0  0  0  0  0  0  0  0
  -12.9191  -28.8023   18.1594 H   0  0  0  0  0  0  0  0  0  0  0  0
  -11.7456  -26.6588   17.8036 H   0  0  0  0  0  0  0  0  0  0  0  0
  -11.5160  -25.7373   15.5056 H   0  0  0  0  0  0  0  0  0  0  0  0
  -12.6093  -26.8728   13.6207 H   0  0  0  0  0  0  0  0  0  0  0  0
  -12.8931  -28.0923   10.8380 H   0  0  0  0  0  0  0  0  0  0  0  0
  -11.5154  -28.6964    9.8944 H   0  0  0  0  0  0  0  0  0  0  0  0
  -11.4593  -26.3352   11.9506 H   0  0  0  0  0  0  0  0  0  0  0  0
  -11.4025  -26.3022   10.2691 H   0  0  0  0  0  0  0  0  0  0  0  0
  1  2  1  0
  2  3  2  0
  2  4  1  0
  4  5  1  0
  5  6  1  0
  6  7  1  0
  7  8  1  0
  8  9  2  3
  9 10  1  0
 10 11  1  0
 11 12  2  0
 12 13  1  0
 13 14  2  0
 14 15  1  0
 15 16  2  0
  7 17  1  0
 17 18  1  0
 18  4  1  0
 16 11  1  0
  1 19  1  0
  1 20  1  0
  1 21  1  0
  5 22  1  0
  5 23  1  0
  6 24  1  0
  6 25  1  0
  8 26  1  0
  9 27  1  0
 10 28  1  0
 10 29  1  0
 12 30  1  0
 13 31  1  0
 14 32  1  0
 15 33  1  0
 16 34  1  0
 17 35  1  0
 17 36  1  0
 18 37  1  0
 18 38  1  0
M  END
>  <Energy>  (623) 
164.72218620562242

>  <compound_id>  (623) 
24

>  <target_id>  (623) 
1

>  <reference_id>  (623) 
9

>  <inspiration_ids>  (623) 
[28, 9]

>  <energy_score>  (623) 
62.519635542287254

>  <distance_score>  (623) 
2.535157768026285

>  <path>  (623) 
/opt/xchem-fragalysis-2/maxwin/BulkDock/SCRATCH/505732/C24-P9/C24-P9.minimised.mol

>  <scratch_subdir>  (623) 
/opt/xchem-fragalysis-2/maxwin/BulkDock/SCRATCH/505732/C24-P9

>  <fragmenstein_runtime>  (623) 
17.205912828445435

>  <fragmenstein_outcome>  (623) 
too moved

>  <fragmenstein_mode>  (623) 
expansion

>  <fragmenstein_error>  (623) 


$$$$
C24-P28
     RDKit          2D

  0  0  0  0  0  0  0  0  0  0999 V2000
M  END
>  <compound_id>  (624) 
24

>  <target_id>  (624) 
1

>  <reference_id>  (624) 
28

>  <inspiration_ids>  (624) 
[28, 21]

>  <energy_score>  (624) 
nan

>  <distance_score>  (624) 
nan

>  <path>  (624) 
/opt/xchem-fragalysis-2/maxwin/BulkDock/SCRATCH/505732/C24-P28/C24-P28.minimised.mol

>  <scratch_subdir>  (624) 
/opt/xchem-fragalysis-2/maxwin/BulkDock/SCRATCH/505732/C24-P28

>  <fragmenstein_runtime>  (624) 
0.3574252128601074

>  <fragmenstein_outcome>  (624) 
too distant

>  <fragmenstein_mode>  (624) 
expansion

>  <fragmenstein_error>  (624) 
DistanceError: hit1

$$$$
C1916-P28
     RDKit          3D

 51 52  0  0  0  0  0  0  0  0999 V2000
  -12.6298  -26.9818   17.4120 C   0  0  0  0  0  0  0  0  0  0  0  0
  -12.1864  -27.6461   16.1307 C   0  0  0  0  0  0  0  0  0  0  0  0
  -11.9359  -28.7945   16.0883 O   0  0  0  0  0  0  0  0  0  0  0  0
  -12.0522  -26.5689   15.0634 N   0  0  0  0  0  0  0  0  0  0  0  0
  -11.4615  -26.6317   13.6647 C   0  0  0  0  0  0  0  0  0  0  0  0
  -11.2916  -25.3844   12.7238 C   0  0  0  0  0  0  0  0  0  0  0  0
  -10.4118  -24.3114   13.4192 C   0  0  0  0  0  0  0  0  0  0  0  0
  -10.3074  -23.0695   12.7361 O   0  0  0  0  0  0  0  0  0  0  0  0
  -10.2618  -26.0128   11.2881 S   0  0  0  0  0  0  0  0  0  0  0  0
  -11.2277  -27.3064   10.5552 C   0  0  0  0  0  0  0  0  0  0  0  0
  -10.1649  -24.9683   10.2887 O   0  0  0  0  0  0  0  0  0  0  0  0
   -9.0557  -26.6419   11.7958 O   0  0  0  0  0  0  0  0  0  0  0  0
  -12.6804  -24.8821   12.4053 N   0  0  0  0  0  0  0  0  0  0  0  0
  -13.1173  -24.5370   11.1378 C   0  0  0  0  0  0  0  0  0  0  0  0
  -14.3446  -24.6184   10.6052 C   0  0  0  0  0  0  0  0  0  0  0  0
  -14.6530  -24.2214    9.1849 C   0  0  0  0  0  0  0  0  0  0  0  0
  -16.1041  -23.8459    8.9914 C   0  0  0  0  0  0  0  0  0  0  0  0
  -17.0156  -24.7730    8.4654 C   0  0  0  0  0  0  0  0  0  0  0  0
  -18.3596  -24.4315    8.3027 C   0  0  0  0  0  0  0  0  0  0  0  0
  -18.8076  -23.1638    8.6690 C   0  0  0  0  0  0  0  0  0  0  0  0
  -17.9131  -22.2366    9.1989 C   0  0  0  0  0  0  0  0  0  0  0  0
  -16.5694  -22.5768    9.3606 C   0  0  0  0  0  0  0  0  0  0  0  0
  -13.5844  -25.0520   13.5314 C   0  0  0  0  0  0  0  0  0  0  0  0
  -13.3803  -26.4428   14.2050 C   0  0  0  0  0  0  0  0  0  0  0  0
  -14.6166  -26.5476   15.1393 C   0  0  0  0  0  0  0  0  0  0  0  0
  -11.7797  -26.9394   18.0892 H   0  0  0  0  0  0  0  0  0  0  0  0
  -12.9895  -25.9667   17.2498 H   0  0  0  0  0  0  0  0  0  0  0  0
  -13.4325  -27.5686   17.8665 H   0  0  0  0  0  0  0  0  0  0  0  0
  -10.4277  -26.9012   13.9403 H   0  0  0  0  0  0  0  0  0  0  0  0
  -11.7375  -27.5650   13.1500 H   0  0  0  0  0  0  0  0  0  0  0  0
  -10.8016  -24.0919   14.4150 H   0  0  0  0  0  0  0  0  0  0  0  0
   -9.4025  -24.6939   13.5597 H   0  0  0  0  0  0  0  0  0  0  0  0
  -11.2114  -22.7204   12.6242 H   0  0  0  0  0  0  0  0  0  0  0  0
  -12.2452  -26.9690   10.3703 H   0  0  0  0  0  0  0  0  0  0  0  0
  -11.2202  -28.1880   11.1958 H   0  0  0  0  0  0  0  0  0  0  0  0
  -10.7597  -27.5655    9.6017 H   0  0  0  0  0  0  0  0  0  0  0  0
  -12.3199  -24.1742   10.4927 H   0  0  0  0  0  0  0  0  0  0  0  0
  -15.1775  -25.0132   11.1779 H   0  0  0  0  0  0  0  0  0  0  0  0
  -14.0215  -23.3829    8.8645 H   0  0  0  0  0  0  0  0  0  0  0  0
  -14.4101  -25.0634    8.5245 H   0  0  0  0  0  0  0  0  0  0  0  0
  -16.6841  -25.7675    8.1750 H   0  0  0  0  0  0  0  0  0  0  0  0
  -19.0576  -25.1544    7.8884 H   0  0  0  0  0  0  0  0  0  0  0  0
  -19.8534  -22.8967    8.5416 H   0  0  0  0  0  0  0  0  0  0  0  0
  -18.2609  -21.2469    9.4865 H   0  0  0  0  0  0  0  0  0  0  0  0
  -15.8875  -21.8411    9.7764 H   0  0  0  0  0  0  0  0  0  0  0  0
  -14.6286  -24.9325   13.2258 H   0  0  0  0  0  0  0  0  0  0  0  0
  -13.3992  -24.2515   14.2502 H   0  0  0  0  0  0  0  0  0  0  0  0
  -13.5452  -27.2899   13.5167 H   0  0  0  0  0  0  0  0  0  0  0  0
  -14.6640  -27.5120   15.6535 H   0  0  0  0  0  0  0  0  0  0  0  0
  -14.6435  -25.7423   15.8797 H   0  0  0  0  0  0  0  0  0  0  0  0
  -15.5429  -26.4795   14.5551 H   0  0  0  0  0  0  0  0  0  0  0  0
  1  2  1  0
  2  3  2  0
  2  4  1  0
  4  5  1  0
  5  6  1  0
  6  7  1  0
  7  8  1  0
  6  9  1  0
  9 10  1  0
  9 11  2  0
  9 12  2  0
  6 13  1  0
 13 14  1  0
 14 15  2  3
 15 16  1  0
 16 17  1  0
 17 18  2  0
 18 19  1  0
 19 20  2  0
 20 21  1  0
 21 22  2  0
 13 23  1  0
 23 24  1  0
 24 25  1  0
 24  4  1  0
 22 17  1  0
  1 26  1  0
  1 27  1  0
  1 28  1  0
  5 29  1  0
  5 30  1  0
  7 31  1  0
  7 32  1  0
  8 33  1  0
 10 34  1  0
 10 35  1  0
 10 36  1  0
 14 37  1  0
 15 38  1  0
 16 39  1  0
 16 40  1  0
 18 41  1  0
 19 42  1  0
 20 43  1  0
 21 44  1  0
 22 45  1  0
 23 46  1  0
 23 47  1  0
 24 48  1  0
 25 49  1  0
 25 50  1  0
 25 51  1  0
M  END
>  <Energy>  (625) 
263.29700255291039

>  <compound_id>  (625) 
1916

>  <target_id>  (625) 
1

>  <reference_id>  (625) 
28

>  <inspiration_ids>  (625) 
[28, 30]

>  <energy_score>  (625) 
17.495618333197342

>  <distance_score>  (625) 
1.9659840625937222

>  <path>  (625) 
/opt/xchem-fragalysis-2/maxwin/BulkDock/SCRATCH/505732/C1916-P28/C1916-P28.minimised.mol

>  <scratch_subdir>  (625) 
/opt/xchem-fragalysis-2/maxwin/BulkDock/SCRATCH/505732/C1916-P28

>  <fragmenstein_runtime>  (625) 
13.279396057128906

>  <fragmenstein_outcome>  (625) 
too moved

>  <fragmenstein_mode>  (625) 
expansion

>  <fragmenstein_error>  (625) 


$$$$
C1916-P30
     RDKit          3D

 51 52  0  0  0  0  0  0  0  0999 V2000
  -11.5160  -30.3397   14.3375 C   0  0  0  0  0  0  0  0  0  0  0  0
  -11.3624  -29.1229   13.4508 C   0  0  0  0  0  0  0  0  0  0  0  0
  -11.4895  -29.1727   12.2851 O   0  0  0  0  0  0  0  0  0  0  0  0
  -10.9766  -27.9631   14.3463 N   0  0  0  0  0  0  0  0  0  0  0  0
  -10.5350  -26.5355   13.9972 C   0  0  0  0  0  0  0  0  0  0  0  0
  -11.1186  -25.5776   12.8772 C   0  0  0  0  0  0  0  0  0  0  0  0
  -10.3207  -24.2036   12.9776 C   0  0  0  0  0  0  0  0  0  0  0  0
  -10.1645  -23.7213   14.3045 O   0  0  0  0  0  0  0  0  0  0  0  0
  -10.6322  -26.1421   11.1569 S   0  0  0  0  0  0  0  0  0  0  0  0
  -11.9913  -27.0448   10.4744 C   0  0  0  0  0  0  0  0  0  0  0  0
  -10.5475  -24.9408   10.3392 O   0  0  0  0  0  0  0  0  0  0  0  0
   -9.4764  -27.0152   11.2320 O   0  0  0  0  0  0  0  0  0  0  0  0
  -12.6088  -25.3805   13.1051 N   0  0  0  0  0  0  0  0  0  0  0  0
  -13.4118  -24.6830   12.2021 C   0  0  0  0  0  0  0  0  0  0  0  0
  -14.7316  -24.8255   11.9987 C   0  0  0  0  0  0  0  0  0  0  0  0
  -15.5300  -24.1232   10.9357 C   0  0  0  0  0  0  0  0  0  0  0  0
  -16.7587  -23.3981   11.4450 C   0  0  0  0  0  0  0  0  0  0  0  0
  -17.8913  -23.3078   10.6207 C   0  0  0  0  0  0  0  0  0  0  0  0
  -19.0166  -22.5884   11.0287 C   0  0  0  0  0  0  0  0  0  0  0  0
  -19.0204  -21.9373   12.2596 C   0  0  0  0  0  0  0  0  0  0  0  0
  -17.9016  -22.0074   13.0853 C   0  0  0  0  0  0  0  0  0  0  0  0
  -16.7797  -22.7344   12.6824 C   0  0  0  0  0  0  0  0  0  0  0  0
  -13.1956  -26.5087   13.8268 C   0  0  0  0  0  0  0  0  0  0  0  0
  -12.2209  -27.1833   14.8156 C   0  0  0  0  0  0  0  0  0  0  0  0
  -12.1893  -26.5384   16.2125 C   0  0  0  0  0  0  0  0  0  0  0  0
  -11.6003  -30.0730   15.3937 H   0  0  0  0  0  0  0  0  0  0  0  0
  -12.4238  -30.8768   14.0489 H   0  0  0  0  0  0  0  0  0  0  0  0
  -10.6457  -30.9877   14.2046 H   0  0  0  0  0  0  0  0  0  0  0  0
   -9.5196  -26.7599   13.6354 H   0  0  0  0  0  0  0  0  0  0  0  0
  -10.2629  -26.0027   14.9172 H   0  0  0  0  0  0  0  0  0  0  0  0
   -9.3062  -24.3288   12.5853 H   0  0  0  0  0  0  0  0  0  0  0  0
  -10.8134  -23.4187   12.3976 H   0  0  0  0  0  0  0  0  0  0  0  0
   -9.7861  -22.8217   14.2686 H   0  0  0  0  0  0  0  0  0  0  0  0
  -12.6222  -26.3553    9.9081 H   0  0  0  0  0  0  0  0  0  0  0  0
  -12.5936  -27.5117   11.2416 H   0  0  0  0  0  0  0  0  0  0  0  0
  -11.5950  -27.8018    9.7939 H   0  0  0  0  0  0  0  0  0  0  0  0
  -12.8556  -23.9962   11.5717 H   0  0  0  0  0  0  0  0  0  0  0  0
  -15.3108  -25.5237   12.5961 H   0  0  0  0  0  0  0  0  0  0  0  0
  -14.9099  -23.4161   10.3734 H   0  0  0  0  0  0  0  0  0  0  0  0
  -15.8480  -24.8945   10.2217 H   0  0  0  0  0  0  0  0  0  0  0  0
  -17.9027  -23.7899    9.6455 H   0  0  0  0  0  0  0  0  0  0  0  0
  -19.8854  -22.5225   10.3789 H   0  0  0  0  0  0  0  0  0  0  0  0
  -19.8883  -21.3614   12.5704 H   0  0  0  0  0  0  0  0  0  0  0  0
  -17.8957  -21.4781   14.0355 H   0  0  0  0  0  0  0  0  0  0  0  0
  -15.9130  -22.7544   13.3394 H   0  0  0  0  0  0  0  0  0  0  0  0
  -13.5585  -27.2612   13.1175 H   0  0  0  0  0  0  0  0  0  0  0  0
  -14.0702  -26.1616   14.3925 H   0  0  0  0  0  0  0  0  0  0  0  0
  -12.8470  -28.0559   15.0767 H   0  0  0  0  0  0  0  0  0  0  0  0
  -11.6612  -27.1864   16.9208 H   0  0  0  0  0  0  0  0  0  0  0  0
  -11.6899  -25.5763   16.2155 H   0  0  0  0  0  0  0  0  0  0  0  0
  -13.2034  -26.3796   16.5954 H   0  0  0  0  0  0  0  0  0  0  0  0
  1  2  1  0
  2  3  2  0
  2  4  1  0
  4  5  1  0
  5  6  1  0
  6  7  1  0
  7  8  1  0
  6  9  1  0
  9 10  1  0
  9 11  2  0
  9 12  2  0
  6 13  1  0
 13 14  1  0
 14 15  2  3
 15 16  1  0
 16 17  1  0
 17 18  2  0
 18 19  1  0
 19 20  2  0
 20 21  1  0
 21 22  2  0
 13 23  1  0
 23 24  1  0
 24 25  1  0
 24  4  1  0
 22 17  1  0
  1 26  1  0
  1 27  1  0
  1 28  1  0
  5 29  1  0
  5 30  1  0
  7 31  1  0
  7 32  1  0
  8 33  1  0
 10 34  1  0
 10 35  1  0
 10 36  1  0
 14 37  1  0
 15 38  1  0
 16 39  1  0
 16 40  1  0
 18 41  1  0
 19 42  1  0
 20 43  1  0
 21 44  1  0
 22 45  1  0
 23 46  1  0
 23 47  1  0
 24 48  1  0
 25 49  1  0
 25 50  1  0
 25 51  1  0
M  END
>  <Energy>  (626) 
266.7125013036781

>  <compound_id>  (626) 
1916

>  <target_id>  (626) 
1

>  <reference_id>  (626) 
30

>  <inspiration_ids>  (626) 
[28, 30]

>  <energy_score>  (626) 
20.911117083963575

>  <distance_score>  (626) 
1.8012304614751404

>  <path>  (626) 
/opt/xchem-fragalysis-2/maxwin/BulkDock/SCRATCH/505732/C1916-P30/C1916-P30.minimised.mol

>  <scratch_subdir>  (626) 
/opt/xchem-fragalysis-2/maxwin/BulkDock/SCRATCH/505732/C1916-P30

>  <fragmenstein_runtime>  (626) 
12.876825332641602

>  <fragmenstein_outcome>  (626) 
too moved

>  <fragmenstein_mode>  (626) 
expansion

>  <fragmenstein_error>  (626) 


$$$$
C1259-P28
     RDKit          3D

 50 52  0  0  0  0  0  0  0  0999 V2000
  -11.6598  -26.5680    9.1179 C   0  0  0  0  0  0  0  0  0  0  0  0
  -12.5250  -26.3033   10.3431 C   0  0  0  0  0  0  0  0  0  0  0  0
  -12.3268  -24.9635   10.8915 N   0  0  0  0  0  0  0  0  0  0  0  0
  -11.5515  -24.8941   12.1415 C   0  0  0  0  0  0  0  0  0  0  0  0
  -10.1000  -25.1892   11.8680 C   0  0  0  0  0  0  0  0  0  0  0  0
   -9.2875  -26.2496   11.9565 C   0  0  0  0  0  0  0  0  0  0  0  0
   -9.3839  -27.5741   12.2993 N   0  0  0  0  0  0  0  0  0  0  0  0
  -10.5258  -28.4037   12.6204 C   0  0  0  0  0  0  0  0  0  0  0  0
   -9.7194  -29.6151   13.8136 C   0  0  0  0  0  0  0  0  0  0  0  0
  -10.3315  -30.7525   13.9015 N   0  0  0  0  0  0  0  0  0  0  0  0
  -10.7157  -31.7251   15.0761 C   0  0  0  0  0  0  0  0  0  0  0  0
  -11.5824  -32.7618   14.3989 C   0  0  0  0  0  0  0  0  0  0  0  0
  -10.4538  -31.7295   16.2037 O   0  0  0  0  0  0  0  0  0  0  0  0
   -9.0311  -29.2821   14.0985 C   0  0  0  0  0  0  0  0  0  0  0  0
   -8.2561  -28.3303   12.8088 C   0  0  0  0  0  0  0  0  0  0  0  0
  -12.2098  -25.4718   13.3973 C   0  0  0  0  0  0  0  0  0  0  0  0
  -11.4086  -25.8118   14.5225 C   0  0  0  0  0  0  0  0  0  0  0  0
  -11.9353  -26.3825   15.6809 C   0  0  0  0  0  0  0  0  0  0  0  0
  -13.3052  -26.5714   15.8167 C   0  0  0  0  0  0  0  0  0  0  0  0
  -14.1189  -26.1426   14.7654 C   0  0  0  0  0  0  0  0  0  0  0  0
  -15.4932  -26.1634   14.6671 N   0  0  0  0  0  0  0  0  0  0  0  0
  -15.8946  -25.6215   13.4803 C   0  0  0  0  0  0  0  0  0  0  0  0
  -14.7628  -25.2535   12.7938 C   0  0  0  0  0  0  0  0  0  0  0  0
  -13.6181  -25.5932   13.5810 C   0  0  0  0  0  0  0  0  0  0  0  0
  -10.5929  -26.5344    9.3522 H   0  0  0  0  0  0  0  0  0  0  0  0
  -11.8815  -27.5603    8.7118 H   0  0  0  0  0  0  0  0  0  0  0  0
  -11.8586  -25.8340    8.3295 H   0  0  0  0  0  0  0  0  0  0  0  0
  -12.3870  -27.0925   11.0855 H   0  0  0  0  0  0  0  0  0  0  0  0
  -13.5717  -26.3728   10.0249 H   0  0  0  0  0  0  0  0  0  0  0  0
  -11.9145  -24.3556   10.1913 H   0  0  0  0  0  0  0  0  0  0  0  0
  -11.5562  -23.8205   12.3887 H   0  0  0  0  0  0  0  0  0  0  0  0
   -9.5987  -24.2772   11.5577 H   0  0  0  0  0  0  0  0  0  0  0  0
   -8.2457  -26.0345   11.7007 H   0  0  0  0  0  0  0  0  0  0  0  0
  -10.9034  -28.9710   11.7607 H   0  0  0  0  0  0  0  0  0  0  0  0
  -11.3470  -27.9158   13.1370 H   0  0  0  0  0  0  0  0  0  0  0  0
   -9.5443  -30.1893   12.7023 H   0  0  0  0  0  0  0  0  0  0  0  0
  -10.7538  -29.2970   14.4350 H   0  0  0  0  0  0  0  0  0  0  0  0
  -11.0148  -33.2696   13.6142 H   0  0  0  0  0  0  0  0  0  0  0  0
  -12.4701  -32.2859   13.9731 H   0  0  0  0  0  0  0  0  0  0  0  0
  -11.9023  -33.5045   15.1356 H   0  0  0  0  0  0  0  0  0  0  0  0
   -9.1075  -28.5897   15.1258 H   0  0  0  0  0  0  0  0  0  0  0  0
   -8.0557  -29.8886   14.4932 H   0  0  0  0  0  0  0  0  0  0  0  0
   -7.4869  -27.7178   13.2879 H   0  0  0  0  0  0  0  0  0  0  0  0
   -7.8178  -29.0021   12.0612 H   0  0  0  0  0  0  0  0  0  0  0  0
  -10.3302  -25.6647   14.4816 H   0  0  0  0  0  0  0  0  0  0  0  0
  -11.2680  -26.6796   16.4860 H   0  0  0  0  0  0  0  0  0  0  0  0
  -13.7226  -27.0086   16.7179 H   0  0  0  0  0  0  0  0  0  0  0  0
  -16.1110  -26.5149   15.3850 H   0  0  0  0  0  0  0  0  0  0  0  0
  -16.9427  -25.5391   13.2272 H   0  0  0  0  0  0  0  0  0  0  0  0
  -14.7572  -24.7864   11.8181 H   0  0  0  0  0  0  0  0  0  0  0  0
  1  2  1  0
  2  3  1  0
  3  4  1  0
  4  5  1  0
  5  6  2  3
  6  7  1  0
  7  8  1  0
  8  9  1  0
  9 10  1  0
 10 11  1  0
 11 12  1  0
 11 13  2  0
 10 14  1  0
 14 15  1  0
  4 16  1  0
 16 17  2  0
 17 18  1  0
 18 19  2  0
 19 20  1  0
 20 21  1  0
 21 22  1  0
 22 23  2  0
 23 24  1  0
 15  7  1  0
 24 16  1  0
 24 20  2  0
  1 25  1  0
  1 26  1  0
  1 27  1  0
  2 28  1  0
  2 29  1  0
  3 30  1  0
  4 31  1  0
  5 32  1  0
  6 33  1  0
  8 34  1  0
  8 35  1  0
  9 36  1  0
  9 37  1  0
 12 38  1  0
 12 39  1  0
 12 40  1  0
 14 41  1  0
 14 42  1  0
 15 43  1  0
 15 44  1  0
 17 45  1  0
 18 46  1  0
 19 47  1  0
 21 48  1  0
 22 49  1  0
 23 50  1  0
M  END
>  <Energy>  (627) 
848.86297028292415

>  <compound_id>  (627) 
1259

>  <target_id>  (627) 
1

>  <reference_id>  (627) 
28

>  <inspiration_ids>  (627) 
[28, 77]

>  <energy_score>  (627) 
748.0734749643722

>  <distance_score>  (627) 
2.2536899527583922

>  <path>  (627) 
/opt/xchem-fragalysis-2/maxwin/BulkDock/SCRATCH/505732/C1259-P28/C1259-P28.minimised.mol

>  <scratch_subdir>  (627) 
/opt/xchem-fragalysis-2/maxwin/BulkDock/SCRATCH/505732/C1259-P28

>  <fragmenstein_runtime>  (627) 
4.193896770477295

>  <fragmenstein_outcome>  (627) 
too moved

>  <fragmenstein_mode>  (627) 
expansion

>  <fragmenstein_error>  (627) 


$$$$
C1259-P77
     RDKit          3D

 50 52  0  0  0  0  0  0  0  0999 V2000
  -13.1492  -23.9545    8.5285 C   0  0  0  0  0  0  0  0  0  0  0  0
  -12.5718  -25.1378    9.2907 C   0  0  0  0  0  0  0  0  0  0  0  0
  -12.4729  -24.8185   10.7140 N   0  0  0  0  0  0  0  0  0  0  0  0
  -12.0179  -25.9582   11.5207 C   0  0  0  0  0  0  0  0  0  0  0  0
  -10.5176  -26.0505   11.3854 C   0  0  0  0  0  0  0  0  0  0  0  0
   -9.9191  -27.1082   10.8272 C   0  0  0  0  0  0  0  0  0  0  0  0
   -8.5858  -27.3217   10.6385 N   0  0  0  0  0  0  0  0  0  0  0  0
   -8.0074  -28.4107    9.8912 C   0  0  0  0  0  0  0  0  0  0  0  0
   -6.1964  -27.8897    9.8891 C   0  0  0  0  0  0  0  0  0  0  0  0
   -5.6873  -28.9790    9.4072 N   0  0  0  0  0  0  0  0  0  0  0  0
   -5.7654  -29.7357    8.0335 C   0  0  0  0  0  0  0  0  0  0  0  0
   -5.0404  -31.0327    8.3108 C   0  0  0  0  0  0  0  0  0  0  0  0
   -6.2346  -29.4581    7.0168 O   0  0  0  0  0  0  0  0  0  0  0  0
   -6.2808  -27.1222    9.6413 C   0  0  0  0  0  0  0  0  0  0  0  0
   -7.5161  -26.3700   10.7281 C   0  0  0  0  0  0  0  0  0  0  0  0
  -12.4979  -25.8921   12.9789 C   0  0  0  0  0  0  0  0  0  0  0  0
  -11.7431  -26.5398   13.9963 C   0  0  0  0  0  0  0  0  0  0  0  0
  -12.1817  -26.6417   15.3158 C   0  0  0  0  0  0  0  0  0  0  0  0
  -13.4085  -26.1109   15.6971 C   0  0  0  0  0  0  0  0  0  0  0  0
  -14.1675  -25.4739   14.7118 C   0  0  0  0  0  0  0  0  0  0  0  0
  -15.3996  -24.8676   14.8226 N   0  0  0  0  0  0  0  0  0  0  0  0
  -15.8194  -24.4177   13.6038 C   0  0  0  0  0  0  0  0  0  0  0  0
  -14.8323  -24.7115   12.6940 C   0  0  0  0  0  0  0  0  0  0  0  0
  -13.7585  -25.3612   13.3792 C   0  0  0  0  0  0  0  0  0  0  0  0
  -12.4921  -23.0820    8.5868 H   0  0  0  0  0  0  0  0  0  0  0  0
  -13.2695  -24.2112    7.4710 H   0  0  0  0  0  0  0  0  0  0  0  0
  -14.1323  -23.6715    8.9198 H   0  0  0  0  0  0  0  0  0  0  0  0
  -11.5940  -25.3927    8.8687 H   0  0  0  0  0  0  0  0  0  0  0  0
  -13.2367  -25.9967    9.1431 H   0  0  0  0  0  0  0  0  0  0  0  0
  -11.8552  -24.0324   10.8788 H   0  0  0  0  0  0  0  0  0  0  0  0
  -12.4863  -26.8751   11.1345 H   0  0  0  0  0  0  0  0  0  0  0  0
   -9.9273  -25.2297   11.7769 H   0  0  0  0  0  0  0  0  0  0  0  0
  -10.5259  -27.9373   10.4617 H   0  0  0  0  0  0  0  0  0  0  0  0
   -8.3469  -28.4431    8.8466 H   0  0  0  0  0  0  0  0  0  0  0  0
   -8.1134  -29.3967   10.3633 H   0  0  0  0  0  0  0  0  0  0  0  0
   -6.4169  -28.4743   10.9528 H   0  0  0  0  0  0  0  0  0  0  0  0
   -5.2866  -27.7657   10.8639 H   0  0  0  0  0  0  0  0  0  0  0  0
   -5.5561  -31.5875    9.0995 H   0  0  0  0  0  0  0  0  0  0  0  0
   -5.0289  -31.6434    7.4033 H   0  0  0  0  0  0  0  0  0  0  0  0
   -4.0080  -30.8286    8.6078 H   0  0  0  0  0  0  0  0  0  0  0  0
   -5.3338  -26.3404    9.5971 H   0  0  0  0  0  0  0  0  0  0  0  0
   -6.6859  -26.7953    8.5344 H   0  0  0  0  0  0  0  0  0  0  0  0
   -7.0968  -26.2874   11.7363 H   0  0  0  0  0  0  0  0  0  0  0  0
   -7.7497  -25.3916   10.2990 H   0  0  0  0  0  0  0  0  0  0  0  0
  -10.7912  -27.0109   13.7522 H   0  0  0  0  0  0  0  0  0  0  0  0
  -11.5640  -27.1568   16.0478 H   0  0  0  0  0  0  0  0  0  0  0  0
  -13.7605  -26.1934   16.7198 H   0  0  0  0  0  0  0  0  0  0  0  0
  -15.9175  -24.7830   15.6862 H   0  0  0  0  0  0  0  0  0  0  0  0
  -16.7761  -23.9272   13.4870 H   0  0  0  0  0  0  0  0  0  0  0  0
  -14.8750  -24.4792   11.6385 H   0  0  0  0  0  0  0  0  0  0  0  0
  1  2  1  0
  2  3  1  0
  3  4  1  0
  4  5  1  0
  5  6  2  3
  6  7  1  0
  7  8  1  0
  8  9  1  0
  9 10  1  0
 10 11  1  0
 11 12  1  0
 11 13  2  0
 10 14  1  0
 14 15  1  0
  4 16  1  0
 16 17  2  0
 17 18  1  0
 18 19  2  0
 19 20  1  0
 20 21  1  0
 21 22  1  0
 22 23  2  0
 23 24  1  0
 15  7  1  0
 24 16  1  0
 24 20  2  0
  1 25  1  0
  1 26  1  0
  1 27  1  0
  2 28  1  0
  2 29  1  0
  3 30  1  0
  4 31  1  0
  5 32  1  0
  6 33  1  0
  8 34  1  0
  8 35  1  0
  9 36  1  0
  9 37  1  0
 12 38  1  0
 12 39  1  0
 12 40  1  0
 14 41  1  0
 14 42  1  0
 15 43  1  0
 15 44  1  0
 17 45  1  0
 18 46  1  0
 19 47  1  0
 21 48  1  0
 22 49  1  0
 23 50  1  0
M  END
>  <Energy>  (628) 
836.83558831023129

>  <compound_id>  (628) 
1259

>  <target_id>  (628) 
1

>  <reference_id>  (628) 
77

>  <inspiration_ids>  (628) 
[28, 77]

>  <energy_score>  (628) 
736.0460929916811

>  <distance_score>  (628) 
3.42803981983513

>  <path>  (628) 
/opt/xchem-fragalysis-2/maxwin/BulkDock/SCRATCH/505732/C1259-P77/C1259-P77.minimised.mol

>  <scratch_subdir>  (628) 
/opt/xchem-fragalysis-2/maxwin/BulkDock/SCRATCH/505732/C1259-P77

>  <fragmenstein_runtime>  (628) 
5.270576000213623

>  <fragmenstein_outcome>  (628) 
too moved

>  <fragmenstein_mode>  (628) 
expansion

>  <fragmenstein_error>  (628) 


$$$$
C1918-P28
     RDKit          3D

 45 46  0  0  0  0  0  0  0  0999 V2000
  -13.1301  -25.0985    9.6141 C   0  0  0  0  0  0  0  0  0  0  0  0
  -13.9088  -25.9937   10.5674 C   0  0  0  0  0  0  0  0  0  0  0  0
  -14.7032  -25.1975   11.5844 C   0  0  0  0  0  0  0  0  0  0  0  0
  -16.0362  -24.8481   11.2845 C   0  0  0  0  0  0  0  0  0  0  0  0
  -16.5569  -25.2218   10.0759 O   0  0  0  0  0  0  0  0  0  0  0  0
  -16.8291  -24.1312   12.1754 C   0  0  0  0  0  0  0  0  0  0  0  0
  -16.2917  -23.7562   13.3924 C   0  0  0  0  0  0  0  0  0  0  0  0
  -17.0577  -23.0959   14.2712 F   0  0  0  0  0  0  0  0  0  0  0  0
  -14.9788  -24.0720   13.7099 C   0  0  0  0  0  0  0  0  0  0  0  0
  -14.5097  -23.7226   14.9134 F   0  0  0  0  0  0  0  0  0  0  0  0
  -14.1516  -24.7686   12.8160 C   0  0  0  0  0  0  0  0  0  0  0  0
  -12.7020  -24.9746   13.1957 C   0  0  0  0  0  0  0  0  0  0  0  0
  -12.4775  -25.8675   14.3768 C   0  0  0  0  0  0  0  0  0  0  0  0
  -11.3741  -26.5520   14.7018 C   0  0  0  0  0  0  0  0  0  0  0  0
  -10.1272  -26.7073   14.1195 N   0  0  0  0  0  0  0  0  0  0  0  0
   -9.7165  -26.1575   12.8143 C   0  0  0  0  0  0  0  0  0  0  0  0
   -9.8164  -27.2554   11.7441 C   0  0  0  0  0  0  0  0  0  0  0  0
   -9.1267  -28.4763   12.1584 N   0  0  0  0  0  0  0  0  0  0  0  0
   -9.1500  -29.5965   11.3680 C   0  0  0  0  0  0  0  0  0  0  0  0
  -10.2917  -30.5335   11.6545 C   0  0  0  0  0  0  0  0  0  0  0  0
   -8.3081  -29.8211   10.5056 O   0  0  0  0  0  0  0  0  0  0  0  0
   -8.4165  -28.4630   13.4340 C   0  0  0  0  0  0  0  0  0  0  0  0
   -9.2555  -27.8399   14.5727 C   0  0  0  0  0  0  0  0  0  0  0  0
  -12.4061  -24.4748   10.1473 H   0  0  0  0  0  0  0  0  0  0  0  0
  -13.7991  -24.4330    9.0586 H   0  0  0  0  0  0  0  0  0  0  0  0
  -12.5797  -25.7073    8.8899 H   0  0  0  0  0  0  0  0  0  0  0  0
  -13.2350  -26.6929   11.0748 H   0  0  0  0  0  0  0  0  0  0  0  0
  -14.5779  -26.6423    9.9883 H   0  0  0  0  0  0  0  0  0  0  0  0
  -17.4692  -24.8959    9.9970 H   0  0  0  0  0  0  0  0  0  0  0  0
  -17.8558  -23.8661   11.9498 H   0  0  0  0  0  0  0  0  0  0  0  0
  -12.2675  -23.9883   13.4004 H   0  0  0  0  0  0  0  0  0  0  0  0
  -12.1793  -25.3672   12.3288 H   0  0  0  0  0  0  0  0  0  0  0  0
  -13.3135  -25.9576   15.0694 H   0  0  0  0  0  0  0  0  0  0  0  0
  -11.4373  -27.1300   15.6262 H   0  0  0  0  0  0  0  0  0  0  0  0
   -8.6726  -25.8394   12.8801 H   0  0  0  0  0  0  0  0  0  0  0  0
  -10.2436  -25.2482   12.5307 H   0  0  0  0  0  0  0  0  0  0  0  0
   -9.3767  -26.9175   10.7994 H   0  0  0  0  0  0  0  0  0  0  0  0
  -10.8623  -27.5163   11.5475 H   0  0  0  0  0  0  0  0  0  0  0  0
  -10.8835  -30.6645   10.7450 H   0  0  0  0  0  0  0  0  0  0  0  0
  -10.9430  -30.1421   12.4416 H   0  0  0  0  0  0  0  0  0  0  0  0
   -9.8902  -31.4966   11.9797 H   0  0  0  0  0  0  0  0  0  0  0  0
   -7.5039  -27.8766   13.2776 H   0  0  0  0  0  0  0  0  0  0  0  0
   -8.1017  -29.4786   13.6995 H   0  0  0  0  0  0  0  0  0  0  0  0
   -9.8905  -28.6360   14.9832 H   0  0  0  0  0  0  0  0  0  0  0  0
   -8.6004  -27.4973   15.3811 H   0  0  0  0  0  0  0  0  0  0  0  0
  1  2  1  0
  2  3  1  0
  3  4  2  0
  4  5  1  0
  4  6  1  0
  6  7  2  0
  7  8  1  0
  7  9  1  0
  9 10  1  0
  9 11  2  0
 11 12  1  0
 12 13  1  0
 13 14  2  3
 14 15  1  0
 15 16  1  0
 16 17  1  0
 17 18  1  0
 18 19  1  0
 19 20  1  0
 19 21  2  0
 18 22  1  0
 22 23  1  0
 11  3  1  0
 23 15  1  0
  1 24  1  0
  1 25  1  0
  1 26  1  0
  2 27  1  0
  2 28  1  0
  5 29  1  0
  6 30  1  0
 12 31  1  0
 12 32  1  0
 13 33  1  0
 14 34  1  0
 16 35  1  0
 16 36  1  0
 17 37  1  0
 17 38  1  0
 20 39  1  0
 20 40  1  0
 20 41  1  0
 22 42  1  0
 22 43  1  0
 23 44  1  0
 23 45  1  0
M  END
>  <Energy>  (629) 
101.52486863537854

>  <compound_id>  (629) 
1918

>  <target_id>  (629) 
1

>  <reference_id>  (629) 
28

>  <inspiration_ids>  (629) 
[28, 112]

>  <energy_score>  (629) 
-19.703492790236112

>  <distance_score>  (629) 
2.6636668308595834

>  <path>  (629) 
/opt/xchem-fragalysis-2/maxwin/BulkDock/SCRATCH/505732/C1918-P28/C1918-P28.minimised.mol

>  <scratch_subdir>  (629) 
/opt/xchem-fragalysis-2/maxwin/BulkDock/SCRATCH/505732/C1918-P28

>  <fragmenstein_runtime>  (629) 
44.067490100860596

>  <fragmenstein_outcome>  (629) 
too moved

>  <fragmenstein_mode>  (629) 
expansion

>  <fragmenstein_error>  (629) 


$$$$
C1918-P112
     RDKit          3D

 45 46  0  0  0  0  0  0  0  0999 V2000
  -12.9018  -25.4019    9.8029 C   0  0  0  0  0  0  0  0  0  0  0  0
  -14.0673  -26.0714   10.5175 C   0  0  0  0  0  0  0  0  0  0  0  0
  -14.6967  -25.1537   11.5514 C   0  0  0  0  0  0  0  0  0  0  0  0
  -15.7280  -24.2741   11.1654 C   0  0  0  0  0  0  0  0  0  0  0  0
  -16.1718  -24.1452    9.8792 O   0  0  0  0  0  0  0  0  0  0  0  0
  -16.3831  -23.4712   12.0885 C   0  0  0  0  0  0  0  0  0  0  0  0
  -15.9796  -23.4943   13.4076 C   0  0  0  0  0  0  0  0  0  0  0  0
  -16.6394  -22.7420   14.2964 F   0  0  0  0  0  0  0  0  0  0  0  0
  -14.9392  -24.3175   13.8233 C   0  0  0  0  0  0  0  0  0  0  0  0
  -14.6302  -24.3157   15.1280 F   0  0  0  0  0  0  0  0  0  0  0  0
  -14.2834  -25.1726   12.9206 C   0  0  0  0  0  0  0  0  0  0  0  0
  -13.3106  -26.2374   13.3895 C   0  0  0  0  0  0  0  0  0  0  0  0
  -12.6320  -26.1224   14.7185 C   0  0  0  0  0  0  0  0  0  0  0  0
  -11.3373  -26.3867   14.9316 C   0  0  0  0  0  0  0  0  0  0  0  0
  -10.3775  -26.7014   13.9899 N   0  0  0  0  0  0  0  0  0  0  0  0
  -10.0016  -25.6970   12.9584 C   0  0  0  0  0  0  0  0  0  0  0  0
   -9.4194  -26.3899   11.7161 C   0  0  0  0  0  0  0  0  0  0  0  0
   -8.3521  -27.3154   12.0650 N   0  0  0  0  0  0  0  0  0  0  0  0
   -7.1550  -27.3070   11.3973 C   0  0  0  0  0  0  0  0  0  0  0  0
   -7.1099  -28.2011   10.1889 C   0  0  0  0  0  0  0  0  0  0  0  0
   -6.2038  -26.6192   11.7499 O   0  0  0  0  0  0  0  0  0  0  0  0
   -8.6088  -28.2502   13.1524 C   0  0  0  0  0  0  0  0  0  0  0  0
   -9.2317  -27.5658   14.3833 C   0  0  0  0  0  0  0  0  0  0  0  0
  -13.2249  -24.5068    9.2615 H   0  0  0  0  0  0  0  0  0  0  0  0
  -12.4558  -26.0913    9.0791 H   0  0  0  0  0  0  0  0  0  0  0  0
  -12.1214  -25.0982   10.5069 H   0  0  0  0  0  0  0  0  0  0  0  0
  -13.7405  -27.0135   10.9687 H   0  0  0  0  0  0  0  0  0  0  0  0
  -14.8206  -26.3871    9.7859 H   0  0  0  0  0  0  0  0  0  0  0  0
  -15.5692  -24.5853    9.2612 H   0  0  0  0  0  0  0  0  0  0  0  0
  -17.1958  -22.8193   11.7843 H   0  0  0  0  0  0  0  0  0  0  0  0
  -12.5594  -26.3910   12.6135 H   0  0  0  0  0  0  0  0  0  0  0  0
  -13.8922  -27.1699   13.4308 H   0  0  0  0  0  0  0  0  0  0  0  0
  -13.2602  -25.9765   15.5926 H   0  0  0  0  0  0  0  0  0  0  0  0
  -10.9701  -26.4517   15.9551 H   0  0  0  0  0  0  0  0  0  0  0  0
   -9.2674  -25.0107   13.3844 H   0  0  0  0  0  0  0  0  0  0  0  0
  -10.8537  -25.0792   12.6584 H   0  0  0  0  0  0  0  0  0  0  0  0
  -10.1991  -26.9776   11.2174 H   0  0  0  0  0  0  0  0  0  0  0  0
   -9.0472  -25.6483   11.0009 H   0  0  0  0  0  0  0  0  0  0  0  0
   -6.2952  -28.9203   10.3069 H   0  0  0  0  0  0  0  0  0  0  0  0
   -6.9410  -27.5902    9.2982 H   0  0  0  0  0  0  0  0  0  0  0  0
   -8.0461  -28.7522   10.0634 H   0  0  0  0  0  0  0  0  0  0  0  0
   -7.6819  -28.7657   13.4265 H   0  0  0  0  0  0  0  0  0  0  0  0
   -9.3053  -29.0009   12.7595 H   0  0  0  0  0  0  0  0  0  0  0  0
   -9.5729  -28.3455   15.0760 H   0  0  0  0  0  0  0  0  0  0  0  0
   -8.4873  -26.9697   14.9158 H   0  0  0  0  0  0  0  0  0  0  0  0
  1  2  1  0
  2  3  1  0
  3  4  2  0
  4  5  1  0
  4  6  1  0
  6  7  2  0
  7  8  1  0
  7  9  1  0
  9 10  1  0
  9 11  2  0
 11 12  1  0
 12 13  1  0
 13 14  2  3
 14 15  1  0
 15 16  1  0
 16 17  1  0
 17 18  1  0
 18 19  1  0
 19 20  1  0
 19 21  2  0
 18 22  1  0
 22 23  1  0
 11  3  1  0
 23 15  1  0
  1 24  1  0
  1 25  1  0
  1 26  1  0
  2 27  1  0
  2 28  1  0
  5 29  1  0
  6 30  1  0
 12 31  1  0
 12 32  1  0
 13 33  1  0
 14 34  1  0
 16 35  1  0
 16 36  1  0
 17 37  1  0
 17 38  1  0
 20 39  1  0
 20 40  1  0
 20 41  1  0
 22 42  1  0
 22 43  1  0
 23 44  1  0
 23 45  1  0
M  END
>  <Energy>  (630) 
100.21046033666369

>  <compound_id>  (630) 
1918

>  <target_id>  (630) 
1

>  <reference_id>  (630) 
112

>  <inspiration_ids>  (630) 
[28, 112]

>  <energy_score>  (630) 
-21.01790108895041

>  <distance_score>  (630) 
2.7620866768759633

>  <path>  (630) 
/opt/xchem-fragalysis-2/maxwin/BulkDock/SCRATCH/505732/C1918-P112/C1918-P112.minimised.mol

>  <scratch_subdir>  (630) 
/opt/xchem-fragalysis-2/maxwin/BulkDock/SCRATCH/505732/C1918-P112

>  <fragmenstein_runtime>  (630) 
45.32055878639221

>  <fragmenstein_outcome>  (630) 
too moved

>  <fragmenstein_mode>  (630) 
expansion

>  <fragmenstein_error>  (630) 


$$$$
C1920-P29
     RDKit          3D

 58 60  0  0  0  0  0  0  0  0999 V2000
   22.3580   -3.0798    9.8962 C   0  0  0  0  0  0  0  0  0  0  0  0
   21.3597   -2.4474   10.8419 C   0  0  0  0  0  0  0  0  0  0  0  0
   21.2049   -2.8207   11.9459 O   0  0  0  0  0  0  0  0  0  0  0  0
   20.6796   -1.3247   10.0809 N   0  0  0  0  0  0  0  0  0  0  0  0
   19.4292   -1.8281    9.3490 C   0  0  0  0  0  0  0  0  0  0  0  0
   18.3210   -2.5523   10.1564 C   0  0  0  0  0  0  0  0  0  0  0  0
   17.6463   -1.5947   11.0221 N   0  0  0  0  0  0  0  0  0  0  0  0
   16.5395   -1.9855   11.7449 C   0  0  0  0  0  0  0  0  0  0  0  0
   15.7588   -1.1858   12.4672 C   0  0  0  0  0  0  0  0  0  0  0  0
   14.6391   -1.7093   13.2763 C   0  0  0  0  0  0  0  0  0  0  0  0
   14.8660   -1.7341   14.7942 C   0  0  0  0  0  0  0  0  0  0  0  0
   15.9322   -2.6975   15.3130 C   0  0  0  0  0  0  0  0  0  0  0  0
   15.5656   -3.1622   16.7317 C   0  0  0  0  0  0  0  0  0  0  0  0
   14.6685   -2.1591   17.4546 C   0  0  0  0  0  0  0  0  0  0  0  0
   15.0942   -0.7319   17.0891 C   0  0  0  0  0  0  0  0  0  0  0  0
   15.0467   -0.3750   15.5468 C   0  0  0  0  0  0  0  0  0  0  0  0
   16.3561    0.4262   15.2403 C   0  0  0  0  0  0  0  0  0  0  0  0
   16.1881    1.8730   15.4700 N   0  0  0  0  0  0  0  0  0  0  0  0
   15.3115    2.4218   14.4550 C   0  0  0  0  0  0  0  0  0  0  0  0
   14.8752    3.6705   14.9256 O   0  0  0  0  0  0  0  0  0  0  0  0
   14.0973    1.5703   14.1206 C   0  0  0  0  0  0  0  0  0  0  0  0
   13.8487    0.5407   15.2127 C   0  0  0  0  0  0  0  0  0  0  0  0
   12.7200   -0.2518   14.8552 O   0  0  0  0  0  0  0  0  0  0  0  0
   18.6274   -0.6791   11.6157 C   0  0  0  0  0  0  0  0  0  0  0  0
   19.6746   -0.2847   10.5430 C   0  0  0  0  0  0  0  0  0  0  0  0
   23.3055   -3.2220   10.4237 H   0  0  0  0  0  0  0  0  0  0  0  0
   22.5474   -2.4514    9.0215 H   0  0  0  0  0  0  0  0  0  0  0  0
   21.9721   -4.0475    9.5654 H   0  0  0  0  0  0  0  0  0  0  0  0
   19.8427   -2.6256    8.7109 H   0  0  0  0  0  0  0  0  0  0  0  0
   19.0369   -1.1299    8.5889 H   0  0  0  0  0  0  0  0  0  0  0  0
   17.6029   -2.9775    9.4506 H   0  0  0  0  0  0  0  0  0  0  0  0
   18.7424   -3.3748   10.7462 H   0  0  0  0  0  0  0  0  0  0  0  0
   16.3368   -3.0555   11.6967 H   0  0  0  0  0  0  0  0  0  0  0  0
   15.9184   -0.1182   12.4163 H   0  0  0  0  0  0  0  0  0  0  0  0
   14.4121   -2.7371   12.9597 H   0  0  0  0  0  0  0  0  0  0  0  0
   13.7394   -1.1552   12.9955 H   0  0  0  0  0  0  0  0  0  0  0  0
   13.9141   -2.1784   15.1207 H   0  0  0  0  0  0  0  0  0  0  0  0
   16.9193   -2.2203   15.3239 H   0  0  0  0  0  0  0  0  0  0  0  0
   16.0503   -3.5607   14.6690 H   0  0  0  0  0  0  0  0  0  0  0  0
   15.0609   -4.1338   16.7027 H   0  0  0  0  0  0  0  0  0  0  0  0
   16.4908   -3.3166   17.3001 H   0  0  0  0  0  0  0  0  0  0  0  0
   13.6183   -2.3371   17.2022 H   0  0  0  0  0  0  0  0  0  0  0  0
   14.7554   -2.3090   18.5369 H   0  0  0  0  0  0  0  0  0  0  0  0
   16.1298   -0.6491   17.4490 H   0  0  0  0  0  0  0  0  0  0  0  0
   14.5794    0.0127   17.6973 H   0  0  0  0  0  0  0  0  0  0  0  0
   17.1863    0.0853   15.8693 H   0  0  0  0  0  0  0  0  0  0  0  0
   16.7298    0.2799   14.2303 H   0  0  0  0  0  0  0  0  0  0  0  0
   15.7535    2.0151   16.3808 H   0  0  0  0  0  0  0  0  0  0  0  0
   15.8792    2.6075   13.5357 H   0  0  0  0  0  0  0  0  0  0  0  0
   15.6940    4.1093   15.2135 H   0  0  0  0  0  0  0  0  0  0  0  0
   13.2038    2.1944   13.9900 H   0  0  0  0  0  0  0  0  0  0  0  0
   14.2360    1.0734   13.1583 H   0  0  0  0  0  0  0  0  0  0  0  0
   13.6148    1.1276   16.0974 H   0  0  0  0  0  0  0  0  0  0  0  0
   12.0009    0.3828   14.6534 H   0  0  0  0  0  0  0  0  0  0  0  0
   19.1173   -1.1535   12.4745 H   0  0  0  0  0  0  0  0  0  0  0  0
   18.1408    0.2374   11.9678 H   0  0  0  0  0  0  0  0  0  0  0  0
   19.2834    0.3700    9.7454 H   0  0  0  0  0  0  0  0  0  0  0  0
   20.3388    0.4063   11.0860 H   0  0  0  0  0  0  0  0  0  0  0  0
  1  2  1  0
  2  3  2  0
  2  4  1  0
  4  5  1  0
  5  6  1  0
  6  7  1  0
  7  8  1  0
  8  9  2  3
  9 10  1  0
 10 11  1  0
 11 12  1  0
 12 13  1  0
 13 14  1  0
 14 15  1  0
 15 16  1  0
 16 17  1  0
 17 18  1  0
 18 19  1  0
 19 20  1  0
 19 21  1  0
 21 22  1  0
 22 23  1  0
  7 24  1  0
 24 25  1  0
 25  4  1  0
 16 11  1  0
 22 16  1  0
  1 26  1  0
  1 27  1  0
  1 28  1  0
  5 29  1  0
  5 30  1  0
  6 31  1  0
  6 32  1  0
  8 33  1  0
  9 34  1  0
 10 35  1  0
 10 36  1  0
 11 37  1  0
 12 38  1  0
 12 39  1  0
 13 40  1  0
 13 41  1  0
 14 42  1  0
 14 43  1  0
 15 44  1  0
 15 45  1  0
 17 46  1  0
 17 47  1  0
 18 48  1  0
 19 49  1  0
 20 50  1  0
 21 51  1  0
 21 52  1  0
 22 53  1  0
 23 54  1  0
 24 55  1  0
 24 56  1  0
 25 57  1  0
 25 58  1  0
M  END
>  <Energy>  (631) 
142.56236556446882

>  <compound_id>  (631) 
1920

>  <target_id>  (631) 
1

>  <reference_id>  (631) 
29

>  <inspiration_ids>  (631) 
[29, 6]

>  <energy_score>  (631) 
33.86494629164315

>  <distance_score>  (631) 
2.594165092576464

>  <path>  (631) 
/opt/xchem-fragalysis-2/maxwin/BulkDock/SCRATCH/505732/C1920-P29/C1920-P29.minimised.mol

>  <scratch_subdir>  (631) 
/opt/xchem-fragalysis-2/maxwin/BulkDock/SCRATCH/505732/C1920-P29

>  <fragmenstein_runtime>  (631) 
4.492250680923462

>  <fragmenstein_outcome>  (631) 
too moved

>  <fragmenstein_mode>  (631) 
expansion

>  <fragmenstein_error>  (631) 


$$$$
C1920-P6
     RDKit          3D

 58 60  0  0  0  0  0  0  0  0999 V2000
   20.9122   -0.6798    7.7990 C   0  0  0  0  0  0  0  0  0  0  0  0
   20.1645   -1.6197    8.7202 C   0  0  0  0  0  0  0  0  0  0  0  0
   19.8466   -2.7045    8.3994 O   0  0  0  0  0  0  0  0  0  0  0  0
   19.9552   -0.8827   10.0285 N   0  0  0  0  0  0  0  0  0  0  0  0
   18.6329   -0.0989   10.0198 C   0  0  0  0  0  0  0  0  0  0  0  0
   17.3065   -0.8641    9.7289 C   0  0  0  0  0  0  0  0  0  0  0  0
   16.9718   -1.6411   10.9231 N   0  0  0  0  0  0  0  0  0  0  0  0
   16.0422   -1.1339   11.8095 C   0  0  0  0  0  0  0  0  0  0  0  0
   16.0380   -1.1956   13.1413 C   0  0  0  0  0  0  0  0  0  0  0  0
   15.0608   -0.4399   13.9697 C   0  0  0  0  0  0  0  0  0  0  0  0
   14.1176   -1.3381   14.7573 C   0  0  0  0  0  0  0  0  0  0  0  0
   14.9367   -2.2270   15.7366 C   0  0  0  0  0  0  0  0  0  0  0  0
   14.1390   -2.7859   16.9040 C   0  0  0  0  0  0  0  0  0  0  0  0
   12.7011   -3.0098   16.5108 C   0  0  0  0  0  0  0  0  0  0  0  0
   12.0230   -1.7403   15.9936 C   0  0  0  0  0  0  0  0  0  0  0  0
   12.9517   -0.5856   15.4760 C   0  0  0  0  0  0  0  0  0  0  0  0
   13.4907    0.3166   16.6477 C   0  0  0  0  0  0  0  0  0  0  0  0
   13.3821    1.7823   16.5113 N   0  0  0  0  0  0  0  0  0  0  0  0
   13.6663    2.1881   15.1608 C   0  0  0  0  0  0  0  0  0  0  0  0
   13.7264    3.5914   15.1120 O   0  0  0  0  0  0  0  0  0  0  0  0
   12.5843    1.7043   14.2150 C   0  0  0  0  0  0  0  0  0  0  0  0
   12.0895    0.2843   14.5099 C   0  0  0  0  0  0  0  0  0  0  0  0
   10.7547    0.4313   15.0427 O   0  0  0  0  0  0  0  0  0  0  0  0
   18.1790   -2.3611   11.3405 C   0  0  0  0  0  0  0  0  0  0  0  0
   19.3639   -1.3582   11.3538 C   0  0  0  0  0  0  0  0  0  0  0  0
   21.3475    0.1639    8.3416 H   0  0  0  0  0  0  0  0  0  0  0  0
   20.2226   -0.3005    7.0404 H   0  0  0  0  0  0  0  0  0  0  0  0
   21.7254   -1.2286    7.3157 H   0  0  0  0  0  0  0  0  0  0  0  0
   18.7554    0.5438    9.1336 H   0  0  0  0  0  0  0  0  0  0  0  0
   18.5490    0.6513   10.8253 H   0  0  0  0  0  0  0  0  0  0  0  0
   16.5151   -0.1488    9.4743 H   0  0  0  0  0  0  0  0  0  0  0  0
   17.4231   -1.5326    8.8704 H   0  0  0  0  0  0  0  0  0  0  0  0
   15.2664   -0.5599   11.3026 H   0  0  0  0  0  0  0  0  0  0  0  0
   16.8077   -1.7440   13.6726 H   0  0  0  0  0  0  0  0  0  0  0  0
   14.5029    0.2253   13.3105 H   0  0  0  0  0  0  0  0  0  0  0  0
   15.6596    0.1710   14.6520 H   0  0  0  0  0  0  0  0  0  0  0  0
   13.6482   -2.0144   14.0262 H   0  0  0  0  0  0  0  0  0  0  0  0
   15.7999   -1.6828   16.1402 H   0  0  0  0  0  0  0  0  0  0  0  0
   15.3600   -3.0675   15.1721 H   0  0  0  0  0  0  0  0  0  0  0  0
   14.5943   -3.7205   17.2447 H   0  0  0  0  0  0  0  0  0  0  0  0
   14.1871   -2.1027   17.7593 H   0  0  0  0  0  0  0  0  0  0  0  0
   12.6555   -3.7767   15.7314 H   0  0  0  0  0  0  0  0  0  0  0  0
   12.1520   -3.4252   17.3554 H   0  0  0  0  0  0  0  0  0  0  0  0
   11.3815   -1.3226   16.7619 H   0  0  0  0  0  0  0  0  0  0  0  0
   11.3437   -2.0623   15.1914 H   0  0  0  0  0  0  0  0  0  0  0  0
   13.0039    0.0445   17.5856 H   0  0  0  0  0  0  0  0  0  0  0  0
   14.5520    0.1164   16.8272 H   0  0  0  0  0  0  0  0  0  0  0  0
   12.4130    2.0458   16.7063 H   0  0  0  0  0  0  0  0  0  0  0  0
   14.6596    1.8702   14.8607 H   0  0  0  0  0  0  0  0  0  0  0  0
   14.0554    3.8277   15.9972 H   0  0  0  0  0  0  0  0  0  0  0  0
   11.7400    2.4084   14.2232 H   0  0  0  0  0  0  0  0  0  0  0  0
   12.9720    1.7589   13.1898 H   0  0  0  0  0  0  0  0  0  0  0  0
   11.9715   -0.2420   13.5534 H   0  0  0  0  0  0  0  0  0  0  0  0
   10.1700   -0.1209   14.4809 H   0  0  0  0  0  0  0  0  0  0  0  0
   18.3779   -3.1703   10.6275 H   0  0  0  0  0  0  0  0  0  0  0  0
   18.0677   -2.8376   12.3194 H   0  0  0  0  0  0  0  0  0  0  0  0
   19.2873   -0.5715   12.1236 H   0  0  0  0  0  0  0  0  0  0  0  0
   20.2001   -1.9654   11.7347 H   0  0  0  0  0  0  0  0  0  0  0  0
  1  2  1  0
  2  3  2  0
  2  4  1  0
  4  5  1  0
  5  6  1  0
  6  7  1  0
  7  8  1  0
  8  9  2  3
  9 10  1  0
 10 11  1  0
 11 12  1  0
 12 13  1  0
 13 14  1  0
 14 15  1  0
 15 16  1  0
 16 17  1  0
 17 18  1  0
 18 19  1  0
 19 20  1  0
 19 21  1  0
 21 22  1  0
 22 23  1  0
  7 24  1  0
 24 25  1  0
 25  4  1  0
 16 11  1  0
 22 16  1  0
  1 26  1  0
  1 27  1  0
  1 28  1  0
  5 29  1  0
  5 30  1  0
  6 31  1  0
  6 32  1  0
  8 33  1  0
  9 34  1  0
 10 35  1  0
 10 36  1  0
 11 37  1  0
 12 38  1  0
 12 39  1  0
 13 40  1  0
 13 41  1  0
 14 42  1  0
 14 43  1  0
 15 44  1  0
 15 45  1  0
 17 46  1  0
 17 47  1  0
 18 48  1  0
 19 49  1  0
 20 50  1  0
 21 51  1  0
 21 52  1  0
 22 53  1  0
 23 54  1  0
 24 55  1  0
 24 56  1  0
 25 57  1  0
 25 58  1  0
M  END
>  <Energy>  (632) 
142.23328220792445

>  <compound_id>  (632) 
1920

>  <target_id>  (632) 
1

>  <reference_id>  (632) 
6

>  <inspiration_ids>  (632) 
[29, 6]

>  <energy_score>  (632) 
33.535862935097356

>  <distance_score>  (632) 
1.6813997889553023

>  <path>  (632) 
/opt/xchem-fragalysis-2/maxwin/BulkDock/SCRATCH/505732/C1920-P6/C1920-P6.minimised.mol

>  <scratch_subdir>  (632) 
/opt/xchem-fragalysis-2/maxwin/BulkDock/SCRATCH/505732/C1920-P6

>  <fragmenstein_runtime>  (632) 
4.1384642124176025

>  <fragmenstein_outcome>  (632) 
too moved

>  <fragmenstein_mode>  (632) 
expansion

>  <fragmenstein_error>  (632) 


$$$$
C1921-P29
     RDKit          3D

 45 46  0  0  0  0  0  0  0  0999 V2000
   19.9735   -3.8512    8.7074 C   0  0  0  0  0  0  0  0  0  0  0  0
   20.1656   -3.7292   10.2047 C   0  0  0  0  0  0  0  0  0  0  0  0
   20.9514   -4.3712   10.7980 O   0  0  0  0  0  0  0  0  0  0  0  0
   19.1969   -2.6701   10.6911 N   0  0  0  0  0  0  0  0  0  0  0  0
   17.8577   -3.2857   11.0840 C   0  0  0  0  0  0  0  0  0  0  0  0
   16.6158   -2.3783   10.9560 C   0  0  0  0  0  0  0  0  0  0  0  0
   16.6532   -1.3087   11.9500 N   0  0  0  0  0  0  0  0  0  0  0  0
   15.6475   -1.1346   12.8888 C   0  0  0  0  0  0  0  0  0  0  0  0
   15.1595   -0.0199   13.4677 C   0  0  0  0  0  0  0  0  0  0  0  0
   14.0572    0.0426   14.4916 C   0  0  0  0  0  0  0  0  0  0  0  0
   14.4961    0.8007   15.6280 O   0  0  0  0  0  0  0  0  0  0  0  0
   13.5433   -1.2653   15.0585 C   0  0  0  0  0  0  0  0  0  0  0  0
   12.2962   -1.7675   14.6537 C   0  0  0  0  0  0  0  0  0  0  0  0
   11.7444   -2.8733   15.2949 C   0  0  0  0  0  0  0  0  0  0  0  0
   12.4319   -3.4842   16.3431 C   0  0  0  0  0  0  0  0  0  0  0  0
   13.6901   -3.0278   16.7265 C   0  0  0  0  0  0  0  0  0  0  0  0
   14.2526   -1.9351   16.0735 C   0  0  0  0  0  0  0  0  0  0  0  0
   15.6609    1.5674   12.9120 S   0  0  0  0  0  0  0  0  0  0  0  0
   15.2750    1.5578   11.1808 C   0  0  0  0  0  0  0  0  0  0  0  0
   14.7762    2.5631   13.5024 O   0  0  0  0  0  0  0  0  0  0  0  0
   17.0942    1.7525   13.0482 O   0  0  0  0  0  0  0  0  0  0  0  0
   18.0371   -0.8686   12.1974 C   0  0  0  0  0  0  0  0  0  0  0  0
   19.0210   -2.0495   12.0620 C   0  0  0  0  0  0  0  0  0  0  0  0
   19.2721   -3.1074    8.3189 H   0  0  0  0  0  0  0  0  0  0  0  0
   20.9382   -3.7041    8.2137 H   0  0  0  0  0  0  0  0  0  0  0  0
   19.5904   -4.8494    8.4788 H   0  0  0  0  0  0  0  0  0  0  0  0
   17.8769   -3.9241   11.9809 H   0  0  0  0  0  0  0  0  0  0  0  0
   17.7011   -4.0488   10.3077 H   0  0  0  0  0  0  0  0  0  0  0  0
   15.7074   -2.9818   11.0614 H   0  0  0  0  0  0  0  0  0  0  0  0
   16.5925   -1.9253    9.9577 H   0  0  0  0  0  0  0  0  0  0  0  0
   15.2036   -2.0961   13.1539 H   0  0  0  0  0  0  0  0  0  0  0  0
   13.2008    0.5757   14.0587 H   0  0  0  0  0  0  0  0  0  0  0  0
   14.3627    1.7390   15.3808 H   0  0  0  0  0  0  0  0  0  0  0  0
   11.7252   -1.2770   13.8667 H   0  0  0  0  0  0  0  0  0  0  0  0
   10.7800   -3.2589   14.9749 H   0  0  0  0  0  0  0  0  0  0  0  0
   12.0048   -4.3487   16.8435 H   0  0  0  0  0  0  0  0  0  0  0  0
   14.2277   -3.5240   17.5308 H   0  0  0  0  0  0  0  0  0  0  0  0
   15.2219   -1.5606   16.3991 H   0  0  0  0  0  0  0  0  0  0  0  0
   14.2202    1.3056   11.0570 H   0  0  0  0  0  0  0  0  0  0  0  0
   15.9130    0.8546   10.6477 H   0  0  0  0  0  0  0  0  0  0  0  0
   15.4538    2.5643   10.7943 H   0  0  0  0  0  0  0  0  0  0  0  0
   18.2965   -0.0902   11.4707 H   0  0  0  0  0  0  0  0  0  0  0  0
   18.1497   -0.4590   13.2069 H   0  0  0  0  0  0  0  0  0  0  0  0
   20.0118   -1.5884   12.2056 H   0  0  0  0  0  0  0  0  0  0  0  0
   19.0184   -2.7548   12.9120 H   0  0  0  0  0  0  0  0  0  0  0  0
  1  2  1  0
  2  3  2  0
  2  4  1  0
  4  5  1  0
  5  6  1  0
  6  7  1  0
  7  8  1  0
  8  9  2  3
  9 10  1  0
 10 11  1  0
 10 12  1  0
 12 13  2  0
 13 14  1  0
 14 15  2  0
 15 16  1  0
 16 17  2  0
  9 18  1  0
 18 19  1  0
 18 20  2  0
 18 21  2  0
  7 22  1  0
 22 23  1  0
 23  4  1  0
 17 12  1  0
  1 24  1  0
  1 25  1  0
  1 26  1  0
  5 27  1  0
  5 28  1  0
  6 29  1  0
  6 30  1  0
  8 31  1  0
 10 32  1  0
 11 33  1  0
 13 34  1  0
 14 35  1  0
 15 36  1  0
 16 37  1  0
 17 38  1  0
 19 39  1  0
 19 40  1  0
 19 41  1  0
 22 42  1  0
 22 43  1  0
 23 44  1  0
 23 45  1  0
M  END
>  <Energy>  (633) 
167.05251201159632

>  <compound_id>  (633) 
1921

>  <target_id>  (633) 
1

>  <reference_id>  (633) 
29

>  <inspiration_ids>  (633) 
[29, 8]

>  <energy_score>  (633) 
30.695934713371173

>  <distance_score>  (633) 
0.8675850159875611

>  <path>  (633) 
/opt/xchem-fragalysis-2/maxwin/BulkDock/SCRATCH/505732/C1921-P29/C1921-P29.minimised.mol

>  <scratch_subdir>  (633) 
/opt/xchem-fragalysis-2/maxwin/BulkDock/SCRATCH/505732/C1921-P29

>  <fragmenstein_runtime>  (633) 
2.0133438110351562

>  <fragmenstein_outcome>  (633) 
too contorted

>  <fragmenstein_mode>  (633) 
expansion

>  <fragmenstein_error>  (633) 


$$$$
C1921-P8
     RDKit          3D

 45 46  0  0  0  0  0  0  0  0999 V2000
   20.1638   -3.5794    8.9859 C   0  0  0  0  0  0  0  0  0  0  0  0
   20.3284   -3.3748   10.4773 C   0  0  0  0  0  0  0  0  0  0  0  0
   21.1569   -3.9227   11.1055 O   0  0  0  0  0  0  0  0  0  0  0  0
   19.2689   -2.3806   10.9075 N   0  0  0  0  0  0  0  0  0  0  0  0
   17.9790   -3.0893   11.3152 C   0  0  0  0  0  0  0  0  0  0  0  0
   16.6691   -2.2924   11.1218 C   0  0  0  0  0  0  0  0  0  0  0  0
   16.5997   -1.1827   12.0744 N   0  0  0  0  0  0  0  0  0  0  0  0
   15.5766   -1.0618   13.0057 C   0  0  0  0  0  0  0  0  0  0  0  0
   15.0170    0.0287   13.5680 C   0  0  0  0  0  0  0  0  0  0  0  0
   13.9275    0.0534   14.6124 C   0  0  0  0  0  0  0  0  0  0  0  0
   14.3694    0.8091   15.7475 O   0  0  0  0  0  0  0  0  0  0  0  0
   13.4361   -1.2691   15.1633 C   0  0  0  0  0  0  0  0  0  0  0  0
   12.2272   -1.8144   14.7068 C   0  0  0  0  0  0  0  0  0  0  0  0
   11.7260   -2.9850   15.2710 C   0  0  0  0  0  0  0  0  0  0  0  0
   12.4262   -3.6269   16.2908 C   0  0  0  0  0  0  0  0  0  0  0  0
   13.6357   -3.1099   16.7424 C   0  0  0  0  0  0  0  0  0  0  0  0
   14.1407   -1.9405   16.1781 C   0  0  0  0  0  0  0  0  0  0  0  0
   15.4055    1.6355   12.9726 S   0  0  0  0  0  0  0  0  0  0  0  0
   15.0472    1.5561   11.2374 C   0  0  0  0  0  0  0  0  0  0  0  0
   14.4377    2.5706   13.5319 O   0  0  0  0  0  0  0  0  0  0  0  0
   16.8167    1.9360   13.1277 O   0  0  0  0  0  0  0  0  0  0  0  0
   17.9426   -0.6238   12.3195 C   0  0  0  0  0  0  0  0  0  0  0  0
   19.0248   -1.7197   12.2453 C   0  0  0  0  0  0  0  0  0  0  0  0
   19.4205   -2.9023    8.5558 H   0  0  0  0  0  0  0  0  0  0  0  0
   21.1228   -3.3919    8.4950 H   0  0  0  0  0  0  0  0  0  0  0  0
   19.8499   -4.6102    8.8013 H   0  0  0  0  0  0  0  0  0  0  0  0
   18.0344   -3.6775   12.2468 H   0  0  0  0  0  0  0  0  0  0  0  0
   17.9037   -3.8985   10.5756 H   0  0  0  0  0  0  0  0  0  0  0  0
   15.8042   -2.9570   11.2243 H   0  0  0  0  0  0  0  0  0  0  0  0
   16.6384   -1.8802   10.1058 H   0  0  0  0  0  0  0  0  0  0  0  0
   15.2019   -2.0462   13.2906 H   0  0  0  0  0  0  0  0  0  0  0  0
   13.0499    0.5749   14.2074 H   0  0  0  0  0  0  0  0  0  0  0  0
   14.2786    1.7505   15.4991 H   0  0  0  0  0  0  0  0  0  0  0  0
   11.6504   -1.3231   13.9252 H   0  0  0  0  0  0  0  0  0  0  0  0
   10.7884   -3.3990   14.9093 H   0  0  0  0  0  0  0  0  0  0  0  0
   12.0311   -4.5413   16.7234 H   0  0  0  0  0  0  0  0  0  0  0  0
   14.1799   -3.6090   17.5391 H   0  0  0  0  0  0  0  0  0  0  0  0
   15.0756   -1.5280   16.5546 H   0  0  0  0  0  0  0  0  0  0  0  0
   14.0211    1.2094   11.1077 H   0  0  0  0  0  0  0  0  0  0  0  0
   15.7514    0.9012   10.7270 H   0  0  0  0  0  0  0  0  0  0  0  0
   15.1421    2.5663   10.8314 H   0  0  0  0  0  0  0  0  0  0  0  0
   18.1475    0.1462   11.5669 H   0  0  0  0  0  0  0  0  0  0  0  0
   18.0081   -0.1699   13.3138 H   0  0  0  0  0  0  0  0  0  0  0  0
   19.9706   -1.1690   12.3767 H   0  0  0  0  0  0  0  0  0  0  0  0
   19.0734   -2.3843   13.1262 H   0  0  0  0  0  0  0  0  0  0  0  0
  1  2  1  0
  2  3  2  0
  2  4  1  0
  4  5  1  0
  5  6  1  0
  6  7  1  0
  7  8  1  0
  8  9  2  3
  9 10  1  0
 10 11  1  0
 10 12  1  0
 12 13  2  0
 13 14  1  0
 14 15  2  0
 15 16  1  0
 16 17  2  0
  9 18  1  0
 18 19  1  0
 18 20  2  0
 18 21  2  0
  7 22  1  0
 22 23  1  0
 23  4  1  0
 17 12  1  0
  1 24  1  0
  1 25  1  0
  1 26  1  0
  5 27  1  0
  5 28  1  0
  6 29  1  0
  6 30  1  0
  8 31  1  0
 10 32  1  0
 11 33  1  0
 13 34  1  0
 14 35  1  0
 15 36  1  0
 16 37  1  0
 17 38  1  0
 19 39  1  0
 19 40  1  0
 19 41  1  0
 22 42  1  0
 22 43  1  0
 23 44  1  0
 23 45  1  0
M  END
>  <Energy>  (634) 
166.27129147785746

>  <compound_id>  (634) 
1921

>  <target_id>  (634) 
1

>  <reference_id>  (634) 
8

>  <inspiration_ids>  (634) 
[29, 8]

>  <energy_score>  (634) 
29.914714179633222

>  <distance_score>  (634) 
0.84252039787739

>  <path>  (634) 
/opt/xchem-fragalysis-2/maxwin/BulkDock/SCRATCH/505732/C1921-P8/C1921-P8.minimised.mol

>  <scratch_subdir>  (634) 
/opt/xchem-fragalysis-2/maxwin/BulkDock/SCRATCH/505732/C1921-P8

>  <fragmenstein_runtime>  (634) 
2.0802886486053467

>  <fragmenstein_outcome>  (634) 
too contorted

>  <fragmenstein_mode>  (634) 
expansion

>  <fragmenstein_error>  (634) 


$$$$
C1922-P29
     RDKit          3D

 59 61  0  0  0  0  0  0  0  0999 V2000
   18.9240   -6.3632    9.5711 C   0  0  0  0  0  0  0  0  0  0  0  0
   18.8921   -5.5975   10.8766 C   0  0  0  0  0  0  0  0  0  0  0  0
   18.2688   -6.0278   11.8129 O   0  0  0  0  0  0  0  0  0  0  0  0
   19.7461   -4.4594   10.7749 N   0  0  0  0  0  0  0  0  0  0  0  0
   18.9344   -3.2235   10.3363 C   0  0  0  0  0  0  0  0  0  0  0  0
   17.7335   -2.7294   11.1995 C   0  0  0  0  0  0  0  0  0  0  0  0
   18.2262   -2.2492   12.4904 N   0  0  0  0  0  0  0  0  0  0  0  0
   17.4581   -1.5239   13.3834 C   0  0  0  0  0  0  0  0  0  0  0  0
   16.3657   -0.7813   13.1769 C   0  0  0  0  0  0  0  0  0  0  0  0
   15.6523   -0.0527   14.2882 C   0  0  0  0  0  0  0  0  0  0  0  0
   14.2326   -0.5439   14.4235 C   0  0  0  0  0  0  0  0  0  0  0  0
   14.0097   -1.7797   15.0633 C   0  0  0  0  0  0  0  0  0  0  0  0
   12.7393   -2.3519   15.1082 C   0  0  0  0  0  0  0  0  0  0  0  0
   11.6922   -1.7438   14.4392 C   0  0  0  0  0  0  0  0  0  0  0  0
   11.8923   -0.5145   13.8071 C   0  0  0  0  0  0  0  0  0  0  0  0
   13.1394    0.1300   13.8552 C   0  0  0  0  0  0  0  0  0  0  0  0
   13.2147    1.5932   13.4940 C   0  0  0  0  0  0  0  0  0  0  0  0
   13.8191    2.3115   14.2464 O   0  0  0  0  0  0  0  0  0  0  0  0
   12.4547    1.9017   12.3309 N   0  0  0  0  0  0  0  0  0  0  0  0
   13.3402    1.8492   11.1017 C   0  0  0  0  0  0  0  0  0  0  0  0
   14.6119    2.7161   11.0532 C   0  0  0  0  0  0  0  0  0  0  0  0
   14.2228    4.1797   10.9323 C   0  0  0  0  0  0  0  0  0  0  0  0
   15.3854    5.1194   11.2310 C   0  0  0  0  0  0  0  0  0  0  0  0
   16.4007    4.9316   10.2528 O   0  0  0  0  0  0  0  0  0  0  0  0
   13.0484    4.4026   11.8640 C   0  0  0  0  0  0  0  0  0  0  0  0
   12.0677    3.2285   11.7315 C   0  0  0  0  0  0  0  0  0  0  0  0
   19.2899   -3.1201   12.9916 C   0  0  0  0  0  0  0  0  0  0  0  0
   20.2339   -3.4942   11.8304 C   0  0  0  0  0  0  0  0  0  0  0  0
   19.1699   -5.7195    8.7226 H   0  0  0  0  0  0  0  0  0  0  0  0
   17.9454   -6.8176    9.3952 H   0  0  0  0  0  0  0  0  0  0  0  0
   19.6777   -7.1523    9.6449 H   0  0  0  0  0  0  0  0  0  0  0  0
   18.4668   -3.5542    9.3971 H   0  0  0  0  0  0  0  0  0  0  0  0
   19.5737   -2.3954    9.9848 H   0  0  0  0  0  0  0  0  0  0  0  0
   17.0076   -3.5364   11.3475 H   0  0  0  0  0  0  0  0  0  0  0  0
   17.2324   -1.9219   10.6536 H   0  0  0  0  0  0  0  0  0  0  0  0
   17.8510   -1.5858   14.3991 H   0  0  0  0  0  0  0  0  0  0  0  0
   15.9518   -0.6792   12.1800 H   0  0  0  0  0  0  0  0  0  0  0  0
   15.7180    1.0161   14.0762 H   0  0  0  0  0  0  0  0  0  0  0  0
   16.1645   -0.1871   15.2500 H   0  0  0  0  0  0  0  0  0  0  0  0
   14.8431   -2.3091   15.5236 H   0  0  0  0  0  0  0  0  0  0  0  0
   12.5732   -3.2863   15.6370 H   0  0  0  0  0  0  0  0  0  0  0  0
   10.7074   -2.2016   14.4349 H   0  0  0  0  0  0  0  0  0  0  0  0
   11.0339   -0.0129   13.3641 H   0  0  0  0  0  0  0  0  0  0  0  0
   13.7419    0.8276   11.1572 H   0  0  0  0  0  0  0  0  0  0  0  0
   12.7873    1.8303   10.1488 H   0  0  0  0  0  0  0  0  0  0  0  0
   15.2231    2.5475   11.9472 H   0  0  0  0  0  0  0  0  0  0  0  0
   15.2242    2.4168   10.1941 H   0  0  0  0  0  0  0  0  0  0  0  0
   13.8919    4.3497    9.8982 H   0  0  0  0  0  0  0  0  0  0  0  0
   15.0594    6.1637   11.1887 H   0  0  0  0  0  0  0  0  0  0  0  0
   15.8118    4.9256   12.2211 H   0  0  0  0  0  0  0  0  0  0  0  0
   17.1518    5.4907   10.5171 H   0  0  0  0  0  0  0  0  0  0  0  0
   13.3835    4.5001   12.9031 H   0  0  0  0  0  0  0  0  0  0  0  0
   12.5411    5.3397   11.6058 H   0  0  0  0  0  0  0  0  0  0  0  0
   11.2375    3.5158   12.3965 H   0  0  0  0  0  0  0  0  0  0  0  0
   11.5528    3.1699   10.7575 H   0  0  0  0  0  0  0  0  0  0  0  0
   18.8604   -4.0166   13.4526 H   0  0  0  0  0  0  0  0  0  0  0  0
   19.8749   -2.5978   13.7586 H   0  0  0  0  0  0  0  0  0  0  0  0
   21.0135   -4.0995   12.3188 H   0  0  0  0  0  0  0  0  0  0  0  0
   20.8194   -2.6472   11.4355 H   0  0  0  0  0  0  0  0  0  0  0  0
  1  2  1  0
  2  3  2  0
  2  4  1  0
  4  5  1  0
  5  6  1  0
  6  7  1  0
  7  8  1  0
  8  9  2  3
  9 10  1  0
 10 11  1  0
 11 12  2  0
 12 13  1  0
 13 14  2  0
 14 15  1  0
 15 16  2  0
 16 17  1  0
 17 18  2  0
 17 19  1  0
 19 20  1  0
 20 21  1  0
 21 22  1  0
 22 23  1  0
 23 24  1  0
 22 25  1  0
 25 26  1  0
  7 27  1  0
 27 28  1  0
 28  4  1  0
 16 11  1  0
 26 19  1  0
  1 29  1  0
  1 30  1  0
  1 31  1  0
  5 32  1  0
  5 33  1  0
  6 34  1  0
  6 35  1  0
  8 36  1  0
  9 37  1  0
 10 38  1  0
 10 39  1  0
 12 40  1  0
 13 41  1  0
 14 42  1  0
 15 43  1  0
 20 44  1  0
 20 45  1  0
 21 46  1  0
 21 47  1  0
 22 48  1  0
 23 49  1  0
 23 50  1  0
 24 51  1  0
 25 52  1  0
 25 53  1  0
 26 54  1  0
 26 55  1  0
 27 56  1  0
 27 57  1  0
 28 58  1  0
 28 59  1  0
M  END
>  <Energy>  (635) 
221.75018751384218

>  <compound_id>  (635) 
1922

>  <target_id>  (635) 
1

>  <reference_id>  (635) 
29

>  <inspiration_ids>  (635) 
[29, 10]

>  <energy_score>  (635) 
73.40537627972788

>  <distance_score>  (635) 
2.856974502975773

>  <path>  (635) 
/opt/xchem-fragalysis-2/maxwin/BulkDock/SCRATCH/505732/C1922-P29/C1922-P29.minimised.mol

>  <scratch_subdir>  (635) 
/opt/xchem-fragalysis-2/maxwin/BulkDock/SCRATCH/505732/C1922-P29

>  <fragmenstein_runtime>  (635) 
6.5600905418396

>  <fragmenstein_outcome>  (635) 
too moved

>  <fragmenstein_mode>  (635) 
expansion

>  <fragmenstein_error>  (635) 


$$$$
C1922-P10
     RDKit          3D

 59 61  0  0  0  0  0  0  0  0999 V2000
   19.0897   -3.3259    7.6753 C   0  0  0  0  0  0  0  0  0  0  0  0
   19.2515   -1.9575    8.3020 C   0  0  0  0  0  0  0  0  0  0  0  0
   20.2452   -1.3162    8.0891 O   0  0  0  0  0  0  0  0  0  0  0  0
   18.0797   -1.6336    9.0539 N   0  0  0  0  0  0  0  0  0  0  0  0
   18.2479   -2.0843   10.5152 C   0  0  0  0  0  0  0  0  0  0  0  0
   16.9658   -2.3506   11.3436 C   0  0  0  0  0  0  0  0  0  0  0  0
   16.2681   -1.0917   11.5890 N   0  0  0  0  0  0  0  0  0  0  0  0
   15.3676   -0.9533   12.6331 C   0  0  0  0  0  0  0  0  0  0  0  0
   14.6651    0.1320   12.9875 C   0  0  0  0  0  0  0  0  0  0  0  0
   13.7403    0.3012   14.1674 C   0  0  0  0  0  0  0  0  0  0  0  0
   13.3626   -0.9391   14.9416 C   0  0  0  0  0  0  0  0  0  0  0  0
   12.2779   -1.7064   14.4818 C   0  0  0  0  0  0  0  0  0  0  0  0
   11.8566   -2.8466   15.1651 C   0  0  0  0  0  0  0  0  0  0  0  0
   12.5278   -3.2609   16.3098 C   0  0  0  0  0  0  0  0  0  0  0  0
   13.5966   -2.5114   16.7928 C   0  0  0  0  0  0  0  0  0  0  0  0
   14.0143   -1.3529   16.1186 C   0  0  0  0  0  0  0  0  0  0  0  0
   15.1251   -0.5887   16.7544 C   0  0  0  0  0  0  0  0  0  0  0  0
   14.9789   -0.2653   17.9031 O   0  0  0  0  0  0  0  0  0  0  0  0
   16.2091   -0.3693   15.8629 N   0  0  0  0  0  0  0  0  0  0  0  0
   17.1963   -1.5316   15.9394 C   0  0  0  0  0  0  0  0  0  0  0  0
   17.7845   -1.9117   17.3108 C   0  0  0  0  0  0  0  0  0  0  0  0
   18.7591   -0.8367   17.7517 C   0  0  0  0  0  0  0  0  0  0  0  0
   19.1303   -0.9604   19.2267 C   0  0  0  0  0  0  0  0  0  0  0  0
   20.1327   -0.0081   19.5601 O   0  0  0  0  0  0  0  0  0  0  0  0
   18.1209    0.5026   17.4211 C   0  0  0  0  0  0  0  0  0  0  0  0
   17.4739    0.4336   16.0295 C   0  0  0  0  0  0  0  0  0  0  0  0
   16.2758   -0.2577   10.3936 C   0  0  0  0  0  0  0  0  0  0  0  0
   17.6641   -0.3411    9.7281 C   0  0  0  0  0  0  0  0  0  0  0  0
   19.0273   -4.0983    8.4444 H   0  0  0  0  0  0  0  0  0  0  0  0
   19.9590   -3.5416    7.0464 H   0  0  0  0  0  0  0  0  0  0  0  0
   18.1996   -3.3453    7.0421 H   0  0  0  0  0  0  0  0  0  0  0  0
   19.0288   -1.5321   11.0673 H   0  0  0  0  0  0  0  0  0  0  0  0
   18.7115   -3.0794   10.4324 H   0  0  0  0  0  0  0  0  0  0  0  0
   17.2575   -2.8135   12.2934 H   0  0  0  0  0  0  0  0  0  0  0  0
   16.3052   -3.0409   10.8101 H   0  0  0  0  0  0  0  0  0  0  0  0
   15.2972   -1.8569   13.2385 H   0  0  0  0  0  0  0  0  0  0  0  0
   14.7750    1.0387   12.4007 H   0  0  0  0  0  0  0  0  0  0  0  0
   12.8127    0.7567   13.7926 H   0  0  0  0  0  0  0  0  0  0  0  0
   14.1568    1.0583   14.8424 H   0  0  0  0  0  0  0  0  0  0  0  0
   11.7394   -1.4090   13.5843 H   0  0  0  0  0  0  0  0  0  0  0  0
   11.0097   -3.4159   14.7892 H   0  0  0  0  0  0  0  0  0  0  0  0
   12.2106   -4.1587   16.8343 H   0  0  0  0  0  0  0  0  0  0  0  0
   14.0971   -2.8207   17.7083 H   0  0  0  0  0  0  0  0  0  0  0  0
   16.5722   -2.3997   15.6716 H   0  0  0  0  0  0  0  0  0  0  0  0
   17.9376   -1.5512   15.1216 H   0  0  0  0  0  0  0  0  0  0  0  0
   16.9861   -2.0448   18.0496 H   0  0  0  0  0  0  0  0  0  0  0  0
   18.3039   -2.8744   17.2337 H   0  0  0  0  0  0  0  0  0  0  0  0
   19.6750   -0.9232   17.1507 H   0  0  0  0  0  0  0  0  0  0  0  0
   18.2639   -0.7811   19.8720 H   0  0  0  0  0  0  0  0  0  0  0  0
   19.5180   -1.9591   19.4542 H   0  0  0  0  0  0  0  0  0  0  0  0
   20.9414   -0.2521   19.0791 H   0  0  0  0  0  0  0  0  0  0  0  0
   17.3687    0.7734   18.1712 H   0  0  0  0  0  0  0  0  0  0  0  0
   18.8799    1.2939   17.4342 H   0  0  0  0  0  0  0  0  0  0  0  0
   17.0873    1.4542   15.8787 H   0  0  0  0  0  0  0  0  0  0  0  0
   18.1912    0.3491   15.1960 H   0  0  0  0  0  0  0  0  0  0  0  0
   16.0776    0.7915   10.6359 H   0  0  0  0  0  0  0  0  0  0  0  0
   15.5017   -0.5999    9.6967 H   0  0  0  0  0  0  0  0  0  0  0  0
   18.4695    0.1512   10.3003 H   0  0  0  0  0  0  0  0  0  0  0  0
   17.5907    0.3327    8.8597 H   0  0  0  0  0  0  0  0  0  0  0  0
  1  2  1  0
  2  3  2  0
  2  4  1  0
  4  5  1  0
  5  6  1  0
  6  7  1  0
  7  8  1  0
  8  9  2  3
  9 10  1  0
 10 11  1  0
 11 12  2  0
 12 13  1  0
 13 14  2  0
 14 15  1  0
 15 16  2  0
 16 17  1  0
 17 18  2  0
 17 19  1  0
 19 20  1  0
 20 21  1  0
 21 22  1  0
 22 23  1  0
 23 24  1  0
 22 25  1  0
 25 26  1  0
  7 27  1  0
 27 28  1  0
 28  4  1  0
 16 11  1  0
 26 19  1  0
  1 29  1  0
  1 30  1  0
  1 31  1  0
  5 32  1  0
  5 33  1  0
  6 34  1  0
  6 35  1  0
  8 36  1  0
  9 37  1  0
 10 38  1  0
 10 39  1  0
 12 40  1  0
 13 41  1  0
 14 42  1  0
 15 43  1  0
 20 44  1  0
 20 45  1  0
 21 46  1  0
 21 47  1  0
 22 48  1  0
 23 49  1  0
 23 50  1  0
 24 51  1  0
 25 52  1  0
 25 53  1  0
 26 54  1  0
 26 55  1  0
 27 56  1  0
 27 57  1  0
 28 58  1  0
 28 59  1  0
M  END
>  <Energy>  (636) 
222.99220269292425

>  <compound_id>  (636) 
1922

>  <target_id>  (636) 
1

>  <reference_id>  (636) 
10

>  <inspiration_ids>  (636) 
[29, 10]

>  <energy_score>  (636) 
74.64739145880787

>  <distance_score>  (636) 
1.5491970184885517

>  <path>  (636) 
/opt/xchem-fragalysis-2/maxwin/BulkDock/SCRATCH/505732/C1922-P10/C1922-P10.minimised.mol

>  <scratch_subdir>  (636) 
/opt/xchem-fragalysis-2/maxwin/BulkDock/SCRATCH/505732/C1922-P10

>  <fragmenstein_runtime>  (636) 
6.24683141708374

>  <fragmenstein_outcome>  (636) 
too moved

>  <fragmenstein_mode>  (636) 
expansion

>  <fragmenstein_error>  (636) 


$$$$
C1923-P29
     RDKit          3D

 38 39  0  0  0  0  0  0  0  0999 V2000
   19.1279   -5.5916    9.5957 C   0  0  0  0  0  0  0  0  0  0  0  0
   18.8456   -4.8262   10.8696 C   0  0  0  0  0  0  0  0  0  0  0  0
   18.3981   -5.3375   11.8322 O   0  0  0  0  0  0  0  0  0  0  0  0
   19.3380   -3.4036   10.6493 N   0  0  0  0  0  0  0  0  0  0  0  0
   18.1960   -2.4863   10.1584 C   0  0  0  0  0  0  0  0  0  0  0  0
   16.8912   -2.3217   11.0036 C   0  0  0  0  0  0  0  0  0  0  0  0
   17.2140   -1.6039   12.2306 N   0  0  0  0  0  0  0  0  0  0  0  0
   16.2842   -1.0625   13.0955 C   0  0  0  0  0  0  0  0  0  0  0  0
   14.9624   -0.9050   13.0009 C   0  0  0  0  0  0  0  0  0  0  0  0
   14.1393   -0.3150   14.1167 C   0  0  0  0  0  0  0  0  0  0  0  0
   13.4515   -1.3929   14.9233 C   0  0  0  0  0  0  0  0  0  0  0  0
   12.2101   -1.8532   14.4448 C   0  0  0  0  0  0  0  0  0  0  0  0
   11.5354   -2.8892   15.0795 C   0  0  0  0  0  0  0  0  0  0  0  0
   12.0974   -3.4958   16.1937 C   0  0  0  0  0  0  0  0  0  0  0  0
   13.3122   -3.0535   16.6998 C   0  0  0  0  0  0  0  0  0  0  0  0
   13.9881   -2.0010   16.0755 C   0  0  0  0  0  0  0  0  0  0  0  0
   15.7156   -1.3710   17.0661 I   0  0  0  0  0  0  0  0  0  0  0  0
   18.4858   -2.0854   12.7721 C   0  0  0  0  0  0  0  0  0  0  0  0
   19.4962   -2.2545   11.6208 C   0  0  0  0  0  0  0  0  0  0  0  0
   18.3454   -6.3399    9.4447 H   0  0  0  0  0  0  0  0  0  0  0  0
   19.1663   -4.9379    8.7211 H   0  0  0  0  0  0  0  0  0  0  0  0
   20.0919   -6.0978    9.6984 H   0  0  0  0  0  0  0  0  0  0  0  0
   18.5541   -1.5323    9.7326 H   0  0  0  0  0  0  0  0  0  0  0  0
   17.8547   -3.0077    9.2537 H   0  0  0  0  0  0  0  0  0  0  0  0
   16.1617   -1.7582   10.4103 H   0  0  0  0  0  0  0  0  0  0  0  0
   16.4581   -3.3004   11.2378 H   0  0  0  0  0  0  0  0  0  0  0  0
   16.7637   -0.7234   14.0137 H   0  0  0  0  0  0  0  0  0  0  0  0
   14.4319   -1.2403   12.1165 H   0  0  0  0  0  0  0  0  0  0  0  0
   14.7392    0.3373   14.7599 H   0  0  0  0  0  0  0  0  0  0  0  0
   13.3886    0.3559   13.6782 H   0  0  0  0  0  0  0  0  0  0  0  0
   11.7643   -1.4094   13.5553 H   0  0  0  0  0  0  0  0  0  0  0  0
   10.5910   -3.2433   14.6782 H   0  0  0  0  0  0  0  0  0  0  0  0
   11.6071   -4.3434   16.6604 H   0  0  0  0  0  0  0  0  0  0  0  0
   13.7181   -3.5509   17.5787 H   0  0  0  0  0  0  0  0  0  0  0  0
   18.3358   -3.0336   13.3018 H   0  0  0  0  0  0  0  0  0  0  0  0
   18.8951   -1.3621   13.4881 H   0  0  0  0  0  0  0  0  0  0  0  0
   19.8186   -1.3055   11.1588 H   0  0  0  0  0  0  0  0  0  0  0  0
   20.4159   -2.5645   12.1421 H   0  0  0  0  0  0  0  0  0  0  0  0
  1  2  1  0
  2  3  2  0
  2  4  1  0
  4  5  1  0
  5  6  1  0
  6  7  1  0
  7  8  1  0
  8  9  2  3
  9 10  1  0
 10 11  1  0
 11 12  2  0
 12 13  1  0
 13 14  2  0
 14 15  1  0
 15 16  2  0
 16 17  1  0
  7 18  1  0
 18 19  1  0
 19  4  1  0
 16 11  1  0
  1 20  1  0
  1 21  1  0
  1 22  1  0
  5 23  1  0
  5 24  1  0
  6 25  1  0
  6 26  1  0
  8 27  1  0
  9 28  1  0
 10 29  1  0
 10 30  1  0
 12 31  1  0
 13 32  1  0
 14 33  1  0
 15 34  1  0
 18 35  1  0
 18 36  1  0
 19 37  1  0
 19 38  1  0
M  END
>  <Energy>  (637) 
158.84733206493777

>  <compound_id>  (637) 
1923

>  <target_id>  (637) 
1

>  <reference_id>  (637) 
29

>  <inspiration_ids>  (637) 
[29, 15]

>  <energy_score>  (637) 
35.54286665808547

>  <distance_score>  (637) 
1.2490851116527313

>  <path>  (637) 
/opt/xchem-fragalysis-2/maxwin/BulkDock/SCRATCH/505732/C1923-P29/C1923-P29.minimised.mol

>  <scratch_subdir>  (637) 
/opt/xchem-fragalysis-2/maxwin/BulkDock/SCRATCH/505732/C1923-P29

>  <fragmenstein_runtime>  (637) 
2.059347152709961

>  <fragmenstein_outcome>  (637) 
too moved

>  <fragmenstein_mode>  (637) 
expansion

>  <fragmenstein_error>  (637) 


$$$$
C1923-P15
     RDKit          3D

 38 39  0  0  0  0  0  0  0  0999 V2000
   20.1480   -4.2396    8.8723 C   0  0  0  0  0  0  0  0  0  0  0  0
   19.9696   -3.7696   10.2999 C   0  0  0  0  0  0  0  0  0  0  0  0
   20.3139   -4.4043   11.2273 O   0  0  0  0  0  0  0  0  0  0  0  0
   19.2801   -2.4190   10.2357 N   0  0  0  0  0  0  0  0  0  0  0  0
   17.7559   -2.5759   10.2356 C   0  0  0  0  0  0  0  0  0  0  0  0
   16.6194   -1.5341   10.4550 C   0  0  0  0  0  0  0  0  0  0  0  0
   16.5854   -1.2626   11.8863 N   0  0  0  0  0  0  0  0  0  0  0  0
   15.4527   -0.8821   12.5683 C   0  0  0  0  0  0  0  0  0  0  0  0
   15.3404   -0.6010   13.8717 C   0  0  0  0  0  0  0  0  0  0  0  0
   14.0759   -0.1584   14.5518 C   0  0  0  0  0  0  0  0  0  0  0  0
   13.3857   -1.3027   15.2586 C   0  0  0  0  0  0  0  0  0  0  0  0
   12.2743   -1.8786   14.6196 C   0  0  0  0  0  0  0  0  0  0  0  0
   11.6493   -3.0039   15.1465 C   0  0  0  0  0  0  0  0  0  0  0  0
   12.1410   -3.5968   16.3012 C   0  0  0  0  0  0  0  0  0  0  0  0
   13.2117   -3.0246   16.9735 C   0  0  0  0  0  0  0  0  0  0  0  0
   13.8209   -1.8711   16.4695 C   0  0  0  0  0  0  0  0  0  0  0  0
   15.3351   -1.0719   17.6604 I   0  0  0  0  0  0  0  0  0  0  0  0
   17.8832   -1.5731   12.4870 C   0  0  0  0  0  0  0  0  0  0  0  0
   18.9233   -1.4408   11.3366 C   0  0  0  0  0  0  0  0  0  0  0  0
   19.4138   -5.0210    8.6606 H   0  0  0  0  0  0  0  0  0  0  0  0
   20.0214   -3.4238    8.1550 H   0  0  0  0  0  0  0  0  0  0  0  0
   21.1583   -4.6411    8.7532 H   0  0  0  0  0  0  0  0  0  0  0  0
   17.5985   -2.9054    9.1990 H   0  0  0  0  0  0  0  0  0  0  0  0
   17.5264   -3.4868   10.8139 H   0  0  0  0  0  0  0  0  0  0  0  0
   16.7896   -0.6176    9.8784 H   0  0  0  0  0  0  0  0  0  0  0  0
   15.6681   -1.9717   10.1300 H   0  0  0  0  0  0  0  0  0  0  0  0
   14.5763   -0.7982   11.9269 H   0  0  0  0  0  0  0  0  0  0  0  0
   16.2151   -0.6799   14.5086 H   0  0  0  0  0  0  0  0  0  0  0  0
   14.2934    0.6530   15.2556 H   0  0  0  0  0  0  0  0  0  0  0  0
   13.3943    0.2918   13.8173 H   0  0  0  0  0  0  0  0  0  0  0  0
   11.8960   -1.4668   13.6851 H   0  0  0  0  0  0  0  0  0  0  0  0
   10.8019   -3.4391   14.6267 H   0  0  0  0  0  0  0  0  0  0  0  0
   11.6873   -4.5061   16.6814 H   0  0  0  0  0  0  0  0  0  0  0  0
   13.5530   -3.4881   17.8964 H   0  0  0  0  0  0  0  0  0  0  0  0
   17.8924   -2.5728   12.9356 H   0  0  0  0  0  0  0  0  0  0  0  0
   18.1315   -0.8371   13.2597 H   0  0  0  0  0  0  0  0  0  0  0  0
   18.8594   -0.4463   10.8625 H   0  0  0  0  0  0  0  0  0  0  0  0
   19.8822   -1.3943   11.8756 H   0  0  0  0  0  0  0  0  0  0  0  0
  1  2  1  0
  2  3  2  0
  2  4  1  0
  4  5  1  0
  5  6  1  0
  6  7  1  0
  7  8  1  0
  8  9  2  3
  9 10  1  0
 10 11  1  0
 11 12  2  0
 12 13  1  0
 13 14  2  0
 14 15  1  0
 15 16  2  0
 16 17  1  0
  7 18  1  0
 18 19  1  0
 19  4  1  0
 16 11  1  0
  1 20  1  0
  1 21  1  0
  1 22  1  0
  5 23  1  0
  5 24  1  0
  6 25  1  0
  6 26  1  0
  8 27  1  0
  9 28  1  0
 10 29  1  0
 10 30  1  0
 12 31  1  0
 13 32  1  0
 14 33  1  0
 15 34  1  0
 18 35  1  0
 18 36  1  0
 19 37  1  0
 19 38  1  0
M  END
>  <Energy>  (638) 
175.14358527994807

>  <compound_id>  (638) 
1923

>  <target_id>  (638) 
1

>  <reference_id>  (638) 
15

>  <inspiration_ids>  (638) 
[29, 15]

>  <energy_score>  (638) 
51.83911987309526

>  <distance_score>  (638) 
0.6408420170605856

>  <path>  (638) 
/opt/xchem-fragalysis-2/maxwin/BulkDock/SCRATCH/505732/C1923-P15/C1923-P15.minimised.mol

>  <scratch_subdir>  (638) 
/opt/xchem-fragalysis-2/maxwin/BulkDock/SCRATCH/505732/C1923-P15

>  <fragmenstein_runtime>  (638) 
1.2290947437286377

>  <fragmenstein_outcome>  (638) 
too contorted

>  <fragmenstein_mode>  (638) 
expansion

>  <fragmenstein_error>  (638) 


$$$$
C1926-P29
     RDKit          3D

 54 56  0  0  0  0  0  0  0  0999 V2000
   21.5613   -3.2125    8.5913 C   0  0  0  0  0  0  0  0  0  0  0  0
   21.0764   -4.1616    9.6678 C   0  0  0  0  0  0  0  0  0  0  0  0
   21.4354   -5.3084    9.6679 O   0  0  0  0  0  0  0  0  0  0  0  0
   20.2309   -3.4558   10.5704 N   0  0  0  0  0  0  0  0  0  0  0  0
   18.7725   -3.5352   10.0989 C   0  0  0  0  0  0  0  0  0  0  0  0
   17.8471   -2.3752   10.5377 C   0  0  0  0  0  0  0  0  0  0  0  0
   17.6336   -2.4196   11.9841 N   0  0  0  0  0  0  0  0  0  0  0  0
   16.6366   -1.6636   12.5792 C   0  0  0  0  0  0  0  0  0  0  0  0
   16.3949   -1.4921   13.8864 C   0  0  0  0  0  0  0  0  0  0  0  0
   15.3432   -0.5842   14.5140 C   0  0  0  0  0  0  0  0  0  0  0  0
   14.1561   -1.4300   14.9582 C   0  0  0  0  0  0  0  0  0  0  0  0
   13.0075   -1.5949   14.1746 C   0  0  0  0  0  0  0  0  0  0  0  0
   11.9656   -2.4150   14.6088 C   0  0  0  0  0  0  0  0  0  0  0  0
   12.0707   -3.1043   15.8125 C   0  0  0  0  0  0  0  0  0  0  0  0
   13.2119   -2.9732   16.5961 C   0  0  0  0  0  0  0  0  0  0  0  0
   14.2465   -2.1395   16.1728 C   0  0  0  0  0  0  0  0  0  0  0  0
   15.0507    0.7282   13.6907 C   0  0  0  0  0  0  0  0  0  0  0  0
   13.9430    1.5868   14.3370 C   0  0  0  0  0  0  0  0  0  0  0  0
   13.9912    3.0381   13.8782 C   0  0  0  0  0  0  0  0  0  0  0  0
   13.6628    3.0950   12.4872 O   0  0  0  0  0  0  0  0  0  0  0  0
   15.3663    3.6599   14.1387 C   0  0  0  0  0  0  0  0  0  0  0  0
   16.4405    2.6103   14.4182 C   0  0  0  0  0  0  0  0  0  0  0  0
   16.3022    1.5095   13.4834 N   0  0  0  0  0  0  0  0  0  0  0  0
   18.8494   -2.8209   12.6918 C   0  0  0  0  0  0  0  0  0  0  0  0
   19.6053   -3.8864   11.8755 C   0  0  0  0  0  0  0  0  0  0  0  0
   21.1708   -3.5406    7.6241 H   0  0  0  0  0  0  0  0  0  0  0  0
   21.2341   -2.1845    8.7727 H   0  0  0  0  0  0  0  0  0  0  0  0
   22.6547   -3.2259    8.5723 H   0  0  0  0  0  0  0  0  0  0  0  0
   18.3147   -4.5367   10.1725 H   0  0  0  0  0  0  0  0  0  0  0  0
   18.8430   -3.4118    9.0062 H   0  0  0  0  0  0  0  0  0  0  0  0
   16.8900   -2.4626   10.0117 H   0  0  0  0  0  0  0  0  0  0  0  0
   18.2995   -1.4148   10.2616 H   0  0  0  0  0  0  0  0  0  0  0  0
   16.0033   -1.1676   11.8453 H   0  0  0  0  0  0  0  0  0  0  0  0
   17.0025   -2.0304   14.6079 H   0  0  0  0  0  0  0  0  0  0  0  0
   15.8031   -0.2152   15.4453 H   0  0  0  0  0  0  0  0  0  0  0  0
   12.9112   -1.1028   13.2099 H   0  0  0  0  0  0  0  0  0  0  0  0
   11.0862   -2.5442   13.9853 H   0  0  0  0  0  0  0  0  0  0  0  0
   11.2874   -3.7930   16.1085 H   0  0  0  0  0  0  0  0  0  0  0  0
   13.3075   -3.5454   17.5162 H   0  0  0  0  0  0  0  0  0  0  0  0
   15.1432   -2.0672   16.7849 H   0  0  0  0  0  0  0  0  0  0  0  0
   14.6974    0.4487   12.6903 H   0  0  0  0  0  0  0  0  0  0  0  0
   12.9742    1.1688   14.0494 H   0  0  0  0  0  0  0  0  0  0  0  0
   14.0210    1.5537   15.4307 H   0  0  0  0  0  0  0  0  0  0  0  0
   13.2205    3.6161   14.4002 H   0  0  0  0  0  0  0  0  0  0  0  0
   13.7938    4.0109   12.1925 H   0  0  0  0  0  0  0  0  0  0  0  0
   15.6728    4.2850   13.2910 H   0  0  0  0  0  0  0  0  0  0  0  0
   15.3063    4.3178   15.0143 H   0  0  0  0  0  0  0  0  0  0  0  0
   16.3902    2.2568   15.4552 H   0  0  0  0  0  0  0  0  0  0  0  0
   17.4265    3.0725   14.2963 H   0  0  0  0  0  0  0  0  0  0  0  0
   17.1126    0.8916   13.5183 H   0  0  0  0  0  0  0  0  0  0  0  0
   18.6097   -3.2519   13.6699 H   0  0  0  0  0  0  0  0  0  0  0  0
   19.4905   -1.9451   12.8497 H   0  0  0  0  0  0  0  0  0  0  0  0
   20.5010   -4.1069   12.4782 H   0  0  0  0  0  0  0  0  0  0  0  0
   19.1264   -4.8805   11.8619 H   0  0  0  0  0  0  0  0  0  0  0  0
  1  2  1  0
  2  3  2  0
  2  4  1  0
  4  5  1  0
  5  6  1  0
  6  7  1  0
  7  8  1  0
  8  9  2  3
  9 10  1  0
 10 11  1  0
 11 12  2  0
 12 13  1  0
 13 14  2  0
 14 15  1  0
 15 16  2  0
 10 17  1  0
 17 18  1  0
 18 19  1  0
 19 20  1  0
 19 21  1  0
 21 22  1  0
 22 23  1  0
  7 24  1  0
 24 25  1  0
 25  4  1  0
 16 11  1  0
 23 17  1  0
  1 26  1  0
  1 27  1  0
  1 28  1  0
  5 29  1  0
  5 30  1  0
  6 31  1  0
  6 32  1  0
  8 33  1  0
  9 34  1  0
 10 35  1  0
 12 36  1  0
 13 37  1  0
 14 38  1  0
 15 39  1  0
 16 40  1  0
 17 41  1  0
 18 42  1  0
 18 43  1  0
 19 44  1  0
 20 45  1  0
 21 46  1  0
 21 47  1  0
 22 48  1  0
 22 49  1  0
 23 50  1  0
 24 51  1  0
 24 52  1  0
 25 53  1  0
 25 54  1  0
M  END
>  <Energy>  (639) 
178.55434699020807

>  <compound_id>  (639) 
1926

>  <target_id>  (639) 
1

>  <reference_id>  (639) 
29

>  <inspiration_ids>  (639) 
[29, 26]

>  <energy_score>  (639) 
23.97561278133071

>  <distance_score>  (639) 
1.927539309981559

>  <path>  (639) 
/opt/xchem-fragalysis-2/maxwin/BulkDock/SCRATCH/505732/C1926-P29/C1926-P29.minimised.mol

>  <scratch_subdir>  (639) 
/opt/xchem-fragalysis-2/maxwin/BulkDock/SCRATCH/505732/C1926-P29

>  <fragmenstein_runtime>  (639) 
6.42100191116333

>  <fragmenstein_outcome>  (639) 
too moved

>  <fragmenstein_mode>  (639) 
expansion

>  <fragmenstein_error>  (639) 


$$$$
C1926-P26
     RDKit          3D

 54 56  0  0  0  0  0  0  0  0999 V2000
   19.3421   -1.0418    7.6331 C   0  0  0  0  0  0  0  0  0  0  0  0
   19.9019   -1.6721    8.8910 C   0  0  0  0  0  0  0  0  0  0  0  0
   20.9065   -2.2817    8.9027 O   0  0  0  0  0  0  0  0  0  0  0  0
   18.9527   -1.3256   10.0194 N   0  0  0  0  0  0  0  0  0  0  0  0
   17.8744   -2.4010   10.1870 C   0  0  0  0  0  0  0  0  0  0  0  0
   16.5179   -1.9539   10.7896 C   0  0  0  0  0  0  0  0  0  0  0  0
   16.6893   -1.5250   12.1728 N   0  0  0  0  0  0  0  0  0  0  0  0
   15.6044   -1.3493   13.0201 C   0  0  0  0  0  0  0  0  0  0  0  0
   15.6057   -0.6214   14.1437 C   0  0  0  0  0  0  0  0  0  0  0  0
   14.5315   -0.3855   15.1742 C   0  0  0  0  0  0  0  0  0  0  0  0
   13.6504   -1.5790   15.4773 C   0  0  0  0  0  0  0  0  0  0  0  0
   12.4470   -1.8250   14.8084 C   0  0  0  0  0  0  0  0  0  0  0  0
   11.6478   -2.8919   15.2030 C   0  0  0  0  0  0  0  0  0  0  0  0
   12.0584   -3.7217   16.2458 C   0  0  0  0  0  0  0  0  0  0  0  0
   13.2550   -3.4971   16.9078 C   0  0  0  0  0  0  0  0  0  0  0  0
   14.0519   -2.4360   16.5187 C   0  0  0  0  0  0  0  0  0  0  0  0
   13.7490    0.9732   15.1613 C   0  0  0  0  0  0  0  0  0  0  0  0
   13.6487    1.6900   13.8126 C   0  0  0  0  0  0  0  0  0  0  0  0
   14.9443    2.3799   13.4061 C   0  0  0  0  0  0  0  0  0  0  0  0
   14.6818    3.1988   12.2734 O   0  0  0  0  0  0  0  0  0  0  0  0
   15.5015    3.2170   14.5451 C   0  0  0  0  0  0  0  0  0  0  0  0
   15.5661    2.4448   15.8566 C   0  0  0  0  0  0  0  0  0  0  0  0
   14.2652    1.8906   16.2045 N   0  0  0  0  0  0  0  0  0  0  0  0
   17.9976   -0.9117   12.3989 C   0  0  0  0  0  0  0  0  0  0  0  0
   19.0621   -1.5687   11.5044 C   0  0  0  0  0  0  0  0  0  0  0  0
   19.1185   -1.8308    6.9099 H   0  0  0  0  0  0  0  0  0  0  0  0
   18.4270   -0.4747    7.8261 H   0  0  0  0  0  0  0  0  0  0  0  0
   20.0886   -0.3593    7.2177 H   0  0  0  0  0  0  0  0  0  0  0  0
   18.2308   -3.3866   10.5355 H   0  0  0  0  0  0  0  0  0  0  0  0
   17.6249   -2.6376    9.1435 H   0  0  0  0  0  0  0  0  0  0  0  0
   15.8094   -2.7876   10.7394 H   0  0  0  0  0  0  0  0  0  0  0  0
   16.1082   -1.1251   10.1993 H   0  0  0  0  0  0  0  0  0  0  0  0
   14.7061   -1.8724   12.6960 H   0  0  0  0  0  0  0  0  0  0  0  0
   16.5368   -0.1324   14.4166 H   0  0  0  0  0  0  0  0  0  0  0  0
   15.1344   -0.3188   16.0960 H   0  0  0  0  0  0  0  0  0  0  0  0
   12.1159   -1.1916   13.9889 H   0  0  0  0  0  0  0  0  0  0  0  0
   10.7137   -3.0863   14.6842 H   0  0  0  0  0  0  0  0  0  0  0  0
   11.4564   -4.5737   16.5343 H   0  0  0  0  0  0  0  0  0  0  0  0
   13.5604   -4.1457   17.7211 H   0  0  0  0  0  0  0  0  0  0  0  0
   14.9886   -2.2673   17.0462 H   0  0  0  0  0  0  0  0  0  0  0  0
   12.7174    0.7693   15.4766 H   0  0  0  0  0  0  0  0  0  0  0  0
   13.3277    0.9976   13.0244 H   0  0  0  0  0  0  0  0  0  0  0  0
   12.8505    2.4443   13.8670 H   0  0  0  0  0  0  0  0  0  0  0  0
   15.6942    1.6560   13.0849 H   0  0  0  0  0  0  0  0  0  0  0  0
   15.5225    3.6086   12.0071 H   0  0  0  0  0  0  0  0  0  0  0  0
   14.8835    4.1162   14.6745 H   0  0  0  0  0  0  0  0  0  0  0  0
   16.4989    3.5880   14.2792 H   0  0  0  0  0  0  0  0  0  0  0  0
   15.8766    3.1280   16.6557 H   0  0  0  0  0  0  0  0  0  0  0  0
   16.3374    1.6702   15.8159 H   0  0  0  0  0  0  0  0  0  0  0  0
   13.5984    2.6556   16.3275 H   0  0  0  0  0  0  0  0  0  0  0  0
   18.3118   -1.0398   13.4411 H   0  0  0  0  0  0  0  0  0  0  0  0
   17.9414    0.1626   12.1848 H   0  0  0  0  0  0  0  0  0  0  0  0
   19.9858   -1.0138   11.7357 H   0  0  0  0  0  0  0  0  0  0  0  0
   19.3715   -2.5831   11.8119 H   0  0  0  0  0  0  0  0  0  0  0  0
  1  2  1  0
  2  3  2  0
  2  4  1  0
  4  5  1  0
  5  6  1  0
  6  7  1  0
  7  8  1  0
  8  9  2  3
  9 10  1  0
 10 11  1  0
 11 12  2  0
 12 13  1  0
 13 14  2  0
 14 15  1  0
 15 16  2  0
 10 17  1  0
 17 18  1  0
 18 19  1  0
 19 20  1  0
 19 21  1  0
 21 22  1  0
 22 23  1  0
  7 24  1  0
 24 25  1  0
 25  4  1  0
 16 11  1  0
 23 17  1  0
  1 26  1  0
  1 27  1  0
  1 28  1  0
  5 29  1  0
  5 30  1  0
  6 31  1  0
  6 32  1  0
  8 33  1  0
  9 34  1  0
 10 35  1  0
 12 36  1  0
 13 37  1  0
 14 38  1  0
 15 39  1  0
 16 40  1  0
 17 41  1  0
 18 42  1  0
 18 43  1  0
 19 44  1  0
 20 45  1  0
 21 46  1  0
 21 47  1  0
 22 48  1  0
 22 49  1  0
 23 50  1  0
 24 51  1  0
 24 52  1  0
 25 53  1  0
 25 54  1  0
M  END
>  <Energy>  (640) 
192.08813671653849

>  <compound_id>  (640) 
1926

>  <target_id>  (640) 
1

>  <reference_id>  (640) 
26

>  <inspiration_ids>  (640) 
[29, 26]

>  <energy_score>  (640) 
26.142427984790572

>  <distance_score>  (640) 
1.432601385877226

>  <path>  (640) 
/opt/xchem-fragalysis-2/maxwin/BulkDock/SCRATCH/505732/C1926-P26/C1926-P26.minimised.mol

>  <scratch_subdir>  (640) 
/opt/xchem-fragalysis-2/maxwin/BulkDock/SCRATCH/505732/C1926-P26

>  <fragmenstein_runtime>  (640) 
5.306857109069824

>  <fragmenstein_outcome>  (640) 
too moved

>  <fragmenstein_mode>  (640) 
expansion

>  <fragmenstein_error>  (640) 


$$$$
C1927-P29
     RDKit          3D

 40 41  0  0  0  0  0  0  0  0999 V2000
   19.4716   -5.4336    9.6914 C   0  0  0  0  0  0  0  0  0  0  0  0
   18.8857   -4.7129   10.8865 C   0  0  0  0  0  0  0  0  0  0  0  0
   18.2756   -5.2669   11.7283 O   0  0  0  0  0  0  0  0  0  0  0  0
   19.3278   -3.2596   10.7850 N   0  0  0  0  0  0  0  0  0  0  0  0
   18.2703   -2.4059   10.0725 C   0  0  0  0  0  0  0  0  0  0  0  0
   16.8185   -2.3590   10.6173 C   0  0  0  0  0  0  0  0  0  0  0  0
   16.8003   -1.5944   11.8582 N   0  0  0  0  0  0  0  0  0  0  0  0
   15.5955   -1.2132   12.4268 C   0  0  0  0  0  0  0  0  0  0  0  0
   15.4146   -0.4860   13.5359 C   0  0  0  0  0  0  0  0  0  0  0  0
   14.0704   -0.1439   14.1194 C   0  0  0  0  0  0  0  0  0  0  0  0
   13.4733   -1.2919   14.9041 C   0  0  0  0  0  0  0  0  0  0  0  0
   12.2855   -1.8762   14.4272 C   0  0  0  0  0  0  0  0  0  0  0  0
   11.6897   -2.9347   15.1039 C   0  0  0  0  0  0  0  0  0  0  0  0
   12.2834   -3.4359   16.2547 C   0  0  0  0  0  0  0  0  0  0  0  0
   13.4538   -2.8651   16.7461 C   0  0  0  0  0  0  0  0  0  0  0  0
   14.0676   -1.7978   16.0787 C   0  0  0  0  0  0  0  0  0  0  0  0
   15.0722   -1.0868   16.7659 N   0  0  0  0  0  0  0  0  0  0  0  0
   17.9496   -1.9848   12.6812 C   0  0  0  0  0  0  0  0  0  0  0  0
   19.2059   -2.1153   11.7810 C   0  0  0  0  0  0  0  0  0  0  0  0
   20.3961   -5.9309    9.9973 H   0  0  0  0  0  0  0  0  0  0  0  0
   18.7558   -6.1809    9.3383 H   0  0  0  0  0  0  0  0  0  0  0  0
   19.6914   -4.7521    8.8657 H   0  0  0  0  0  0  0  0  0  0  0  0
   18.1655   -2.9281    9.1092 H   0  0  0  0  0  0  0  0  0  0  0  0
   18.6441   -1.4208    9.7416 H   0  0  0  0  0  0  0  0  0  0  0  0
   16.1785   -1.8713    9.8731 H   0  0  0  0  0  0  0  0  0  0  0  0
   16.4343   -3.3691   10.7938 H   0  0  0  0  0  0  0  0  0  0  0  0
   14.7260   -1.5614   11.8689 H   0  0  0  0  0  0  0  0  0  0  0  0
   16.2785   -0.1008   14.0647 H   0  0  0  0  0  0  0  0  0  0  0  0
   14.1629    0.7333   14.7716 H   0  0  0  0  0  0  0  0  0  0  0  0
   13.3938    0.1669   13.3126 H   0  0  0  0  0  0  0  0  0  0  0  0
   11.8106   -1.5015   13.5223 H   0  0  0  0  0  0  0  0  0  0  0  0
   10.7793   -3.3815   14.7159 H   0  0  0  0  0  0  0  0  0  0  0  0
   11.8460   -4.2852   16.7700 H   0  0  0  0  0  0  0  0  0  0  0  0
   13.8725   -3.2515   17.6723 H   0  0  0  0  0  0  0  0  0  0  0  0
   15.6125   -1.6917   17.3795 H   0  0  0  0  0  0  0  0  0  0  0  0
   15.6830   -0.5719   16.1428 H   0  0  0  0  0  0  0  0  0  0  0  0
   17.7446   -2.9337   13.1902 H   0  0  0  0  0  0  0  0  0  0  0  0
   18.1561   -1.2277   13.4457 H   0  0  0  0  0  0  0  0  0  0  0  0
   19.5824   -1.1501   11.4005 H   0  0  0  0  0  0  0  0  0  0  0  0
   19.9956   -2.3930   12.4971 H   0  0  0  0  0  0  0  0  0  0  0  0
  1  2  1  0
  2  3  2  0
  2  4  1  0
  4  5  1  0
  5  6  1  0
  6  7  1  0
  7  8  1  0
  8  9  2  3
  9 10  1  0
 10 11  1  0
 11 12  2  0
 12 13  1  0
 13 14  2  0
 14 15  1  0
 15 16  2  0
 16 17  1  0
  7 18  1  0
 18 19  1  0
 19  4  1  0
 16 11  1  0
  1 20  1  0
  1 21  1  0
  1 22  1  0
  5 23  1  0
  5 24  1  0
  6 25  1  0
  6 26  1  0
  8 27  1  0
  9 28  1  0
 10 29  1  0
 10 30  1  0
 12 31  1  0
 13 32  1  0
 14 33  1  0
 15 34  1  0
 17 35  1  0
 17 36  1  0
 18 37  1  0
 18 38  1  0
 19 39  1  0
 19 40  1  0
M  END
>  <Energy>  (641) 
152.317093598604

>  <compound_id>  (641) 
1927

>  <target_id>  (641) 
1

>  <reference_id>  (641) 
29

>  <inspiration_ids>  (641) 
[29, 27]

>  <energy_score>  (641) 
41.06674813489252

>  <distance_score>  (641) 
1.2870265953226445

>  <path>  (641) 
/opt/xchem-fragalysis-2/maxwin/BulkDock/SCRATCH/505732/C1927-P29/C1927-P29.minimised.mol

>  <scratch_subdir>  (641) 
/opt/xchem-fragalysis-2/maxwin/BulkDock/SCRATCH/505732/C1927-P29

>  <fragmenstein_runtime>  (641) 
2.775874614715576

>  <fragmenstein_outcome>  (641) 
too moved

>  <fragmenstein_mode>  (641) 
expansion

>  <fragmenstein_error>  (641) 


$$$$
C1927-P27
     RDKit          3D

 40 41  0  0  0  0  0  0  0  0999 V2000
   20.1265   -2.1501    8.2109 C   0  0  0  0  0  0  0  0  0  0  0  0
   20.3279   -2.5378    9.6605 C   0  0  0  0  0  0  0  0  0  0  0  0
   21.2084   -3.2301   10.0158 O   0  0  0  0  0  0  0  0  0  0  0  0
   19.2264   -1.8666   10.4556 N   0  0  0  0  0  0  0  0  0  0  0  0
   17.9926   -2.7668   10.5620 C   0  0  0  0  0  0  0  0  0  0  0  0
   16.6257   -2.0678   10.7532 C   0  0  0  0  0  0  0  0  0  0  0  0
   16.5664   -1.4318   12.0628 N   0  0  0  0  0  0  0  0  0  0  0  0
   15.3607   -1.0878   12.6422 C   0  0  0  0  0  0  0  0  0  0  0  0
   15.1392   -0.2827   13.6896 C   0  0  0  0  0  0  0  0  0  0  0  0
   13.7753    0.0087   14.2587 C   0  0  0  0  0  0  0  0  0  0  0  0
   13.2390   -1.1376   15.0866 C   0  0  0  0  0  0  0  0  0  0  0  0
   12.2118   -1.9236   14.5385 C   0  0  0  0  0  0  0  0  0  0  0  0
   11.7317   -3.0408   15.2109 C   0  0  0  0  0  0  0  0  0  0  0  0
   12.2916   -3.4069   16.4263 C   0  0  0  0  0  0  0  0  0  0  0  0
   13.2786   -2.6130   17.0039 C   0  0  0  0  0  0  0  0  0  0  0  0
   13.7733   -1.4824   16.3423 C   0  0  0  0  0  0  0  0  0  0  0  0
   14.6052   -0.6034   17.0556 N   0  0  0  0  0  0  0  0  0  0  0  0
   17.8584   -0.8829   12.4584 C   0  0  0  0  0  0  0  0  0  0  0  0
   18.9887   -1.8013   11.9511 C   0  0  0  0  0  0  0  0  0  0  0  0
   19.8158   -3.0331    7.6461 H   0  0  0  0  0  0  0  0  0  0  0  0
   19.3683   -1.3704    8.0951 H   0  0  0  0  0  0  0  0  0  0  0  0
   21.0708   -1.7698    7.8114 H   0  0  0  0  0  0  0  0  0  0  0  0
   18.1290   -3.6890   11.1536 H   0  0  0  0  0  0  0  0  0  0  0  0
   17.9186   -3.1933    9.5493 H   0  0  0  0  0  0  0  0  0  0  0  0
   16.4794   -1.3133    9.9707 H   0  0  0  0  0  0  0  0  0  0  0  0
   15.8301   -2.8149   10.6577 H   0  0  0  0  0  0  0  0  0  0  0  0
   14.5097   -1.5701   12.1602 H   0  0  0  0  0  0  0  0  0  0  0  0
   15.9715    0.2075   14.1813 H   0  0  0  0  0  0  0  0  0  0  0  0
   13.8156    0.9194   14.8689 H   0  0  0  0  0  0  0  0  0  0  0  0
   13.0834    0.2493   13.4406 H   0  0  0  0  0  0  0  0  0  0  0  0
   11.7834   -1.6728   13.5711 H   0  0  0  0  0  0  0  0  0  0  0  0
   10.9412   -3.6383   14.7672 H   0  0  0  0  0  0  0  0  0  0  0  0
   11.9430   -4.2985   16.9377 H   0  0  0  0  0  0  0  0  0  0  0  0
   13.6521   -2.8798   17.9892 H   0  0  0  0  0  0  0  0  0  0  0  0
   15.1558   -1.0686   17.7710 H   0  0  0  0  0  0  0  0  0  0  0  0
   15.1878   -0.0261   16.4599 H   0  0  0  0  0  0  0  0  0  0  0  0
   17.9376   -0.8141   13.5492 H   0  0  0  0  0  0  0  0  0  0  0  0
   17.9751    0.1245   12.0411 H   0  0  0  0  0  0  0  0  0  0  0  0
   19.9110   -1.2962   12.2813 H   0  0  0  0  0  0  0  0  0  0  0  0
   19.0905   -2.7566   12.4960 H   0  0  0  0  0  0  0  0  0  0  0  0
  1  2  1  0
  2  3  2  0
  2  4  1  0
  4  5  1  0
  5  6  1  0
  6  7  1  0
  7  8  1  0
  8  9  2  3
  9 10  1  0
 10 11  1  0
 11 12  2  0
 12 13  1  0
 13 14  2  0
 14 15  1  0
 15 16  2  0
 16 17  1  0
  7 18  1  0
 18 19  1  0
 19  4  1  0
 16 11  1  0
  1 20  1  0
  1 21  1  0
  1 22  1  0
  5 23  1  0
  5 24  1  0
  6 25  1  0
  6 26  1  0
  8 27  1  0
  9 28  1  0
 10 29  1  0
 10 30  1  0
 12 31  1  0
 13 32  1  0
 14 33  1  0
 15 34  1  0
 17 35  1  0
 17 36  1  0
 18 37  1  0
 18 38  1  0
 19 39  1  0
 19 40  1  0
M  END
>  <Energy>  (642) 
150.26233617926329

>  <compound_id>  (642) 
1927

>  <target_id>  (642) 
1

>  <reference_id>  (642) 
27

>  <inspiration_ids>  (642) 
[29, 27]

>  <energy_score>  (642) 
39.01199071555379

>  <distance_score>  (642) 
0.860237129047249

>  <path>  (642) 
/opt/xchem-fragalysis-2/maxwin/BulkDock/SCRATCH/505732/C1927-P27/C1927-P27.minimised.mol

>  <scratch_subdir>  (642) 
/opt/xchem-fragalysis-2/maxwin/BulkDock/SCRATCH/505732/C1927-P27

>  <fragmenstein_runtime>  (642) 
5.300751209259033

>  <fragmenstein_outcome>  (642) 
too contorted

>  <fragmenstein_mode>  (642) 
expansion

>  <fragmenstein_error>  (642) 


$$$$
C1929-P29
     RDKit          3D

 56 59  0  0  0  0  0  0  0  0999 V2000
   18.8099   -6.5420    9.5621 C   0  0  0  0  0  0  0  0  0  0  0  0
   18.8768   -5.7791   10.8676 C   0  0  0  0  0  0  0  0  0  0  0  0
   18.2603   -6.1693   11.8258 O   0  0  0  0  0  0  0  0  0  0  0  0
   19.8006   -4.7003   10.7355 N   0  0  0  0  0  0  0  0  0  0  0  0
   19.0587   -3.4130   10.3275 C   0  0  0  0  0  0  0  0  0  0  0  0
   17.9188   -2.8618   11.2342 C   0  0  0  0  0  0  0  0  0  0  0  0
   18.4682   -2.4362   12.5248 N   0  0  0  0  0  0  0  0  0  0  0  0
   17.7002   -1.7056   13.4214 C   0  0  0  0  0  0  0  0  0  0  0  0
   17.9134   -1.5234   14.7344 C   0  0  0  0  0  0  0  0  0  0  0  0
   17.0459   -0.7115   15.6556 C   0  0  0  0  0  0  0  0  0  0  0  0
   15.6845   -1.3236   15.8483 C   0  0  0  0  0  0  0  0  0  0  0  0
   14.6814   -0.9408   15.0319 C   0  0  0  0  0  0  0  0  0  0  0  0
   13.4305   -1.6348   15.1348 C   0  0  0  0  0  0  0  0  0  0  0  0
   12.2534   -1.5294   14.4993 C   0  0  0  0  0  0  0  0  0  0  0  0
   11.7908   -0.6115   13.6148 N   0  0  0  0  0  0  0  0  0  0  0  0
   12.4290    0.5624   13.0344 C   0  0  0  0  0  0  0  0  0  0  0  0
   13.5527    0.9713   13.1298 O   0  0  0  0  0  0  0  0  0  0  0  0
   11.4058    1.3964   12.2807 C   0  0  0  0  0  0  0  0  0  0  0  0
   11.4969    2.8435   12.6194 C   0  0  0  0  0  0  0  0  0  0  0  0
   11.6584    3.9740   11.8497 C   0  0  0  0  0  0  0  0  0  0  0  0
   11.5418    5.0419   12.7563 C   0  0  0  0  0  0  0  0  0  0  0  0
   11.3324    4.6248   14.0056 N   0  0  0  0  0  0  0  0  0  0  0  0
   11.4407    3.2894   13.9161 N   0  0  0  0  0  0  0  0  0  0  0  0
   11.3535   -2.5710   14.9964 C   0  0  0  0  0  0  0  0  0  0  0  0
   11.9583   -3.2823   15.9630 C   0  0  0  0  0  0  0  0  0  0  0  0
   13.2631   -2.7141   16.1105 C   0  0  0  0  0  0  0  0  0  0  0  0
   14.2944   -3.0108   16.9155 C   0  0  0  0  0  0  0  0  0  0  0  0
   15.4845   -2.3010   16.8309 N   0  0  0  0  0  0  0  0  0  0  0  0
   19.5178   -3.3503   12.9724 C   0  0  0  0  0  0  0  0  0  0  0  0
   20.3888   -3.7737   11.7717 C   0  0  0  0  0  0  0  0  0  0  0  0
   17.7928   -6.9138    9.4135 H   0  0  0  0  0  0  0  0  0  0  0  0
   19.0857   -5.9197    8.7068 H   0  0  0  0  0  0  0  0  0  0  0  0
   19.4977   -7.3907    9.6157 H   0  0  0  0  0  0  0  0  0  0  0  0
   19.7349   -2.6211    9.9622 H   0  0  0  0  0  0  0  0  0  0  0  0
   18.5433   -3.7056    9.4009 H   0  0  0  0  0  0  0  0  0  0  0  0
   17.1472   -3.6241   11.3864 H   0  0  0  0  0  0  0  0  0  0  0  0
   17.4500   -2.0105   10.7262 H   0  0  0  0  0  0  0  0  0  0  0  0
   16.8314   -1.2469   12.9505 H   0  0  0  0  0  0  0  0  0  0  0  0
   18.7727   -1.9828   15.2101 H   0  0  0  0  0  0  0  0  0  0  0  0
   16.9694    0.3134   15.2691 H   0  0  0  0  0  0  0  0  0  0  0  0
   17.5441   -0.6155   16.6286 H   0  0  0  0  0  0  0  0  0  0  0  0
   14.8700   -0.2165   14.2604 H   0  0  0  0  0  0  0  0  0  0  0  0
   10.8450   -0.6913   13.2504 H   0  0  0  0  0  0  0  0  0  0  0  0
   10.3987    1.0885   12.5662 H   0  0  0  0  0  0  0  0  0  0  0  0
   11.5516    1.2369   11.2093 H   0  0  0  0  0  0  0  0  0  0  0  0
   11.8178    4.0318   10.7827 H   0  0  0  0  0  0  0  0  0  0  0  0
   11.5879    6.1053   12.5582 H   0  0  0  0  0  0  0  0  0  0  0  0
   11.4349    2.7331   14.7731 H   0  0  0  0  0  0  0  0  0  0  0  0
   10.3677   -2.7607   14.6053 H   0  0  0  0  0  0  0  0  0  0  0  0
   11.5887   -4.1425   16.4929 H   0  0  0  0  0  0  0  0  0  0  0  0
   14.2794   -3.8142   17.6442 H   0  0  0  0  0  0  0  0  0  0  0  0
   16.3149   -2.7448   17.2115 H   0  0  0  0  0  0  0  0  0  0  0  0
   19.0752   -4.2261   13.4604 H   0  0  0  0  0  0  0  0  0  0  0  0
   20.1747   -2.8553   13.6969 H   0  0  0  0  0  0  0  0  0  0  0  0
   21.0107   -2.9620   11.3585 H   0  0  0  0  0  0  0  0  0  0  0  0
   21.1493   -4.4284   12.2257 H   0  0  0  0  0  0  0  0  0  0  0  0
  1  2  1  0
  2  3  2  0
  2  4  1  0
  4  5  1  0
  5  6  1  0
  6  7  1  0
  7  8  1  0
  8  9  2  3
  9 10  1  0
 10 11  1  0
 11 12  2  0
 12 13  1  0
 13 14  2  0
 14 15  1  0
 15 16  1  0
 16 17  2  0
 16 18  1  0
 18 19  1  0
 19 20  2  0
 20 21  1  0
 21 22  2  0
 22 23  1  0
 14 24  1  0
 24 25  2  0
 25 26  1  0
 26 27  2  0
 27 28  1  0
  7 29  1  0
 29 30  1  0
 30  4  1  0
 28 11  1  0
 26 13  1  0
 23 19  1  0
  1 31  1  0
  1 32  1  0
  1 33  1  0
  5 34  1  0
  5 35  1  0
  6 36  1  0
  6 37  1  0
  8 38  1  0
  9 39  1  0
 10 40  1  0
 10 41  1  0
 12 42  1  0
 15 43  1  0
 18 44  1  0
 18 45  1  0
 20 46  1  0
 21 47  1  0
 23 48  1  0
 24 49  1  0
 25 50  1  0
 27 51  1  0
 28 52  1  0
 29 53  1  0
 29 54  1  0
 30 55  1  0
 30 56  1  0
M  END
>  <Energy>  (643) 
212.54955173112944

>  <compound_id>  (643) 
1929

>  <target_id>  (643) 
1

>  <reference_id>  (643) 
29

>  <inspiration_ids>  (643) 
[29, 50]

>  <energy_score>  (643) 
-7.800581505051866

>  <distance_score>  (643) 
2.765743812317482

>  <path>  (643) 
/opt/xchem-fragalysis-2/maxwin/BulkDock/SCRATCH/505732/C1929-P29/C1929-P29.minimised.mol

>  <scratch_subdir>  (643) 
/opt/xchem-fragalysis-2/maxwin/BulkDock/SCRATCH/505732/C1929-P29

>  <fragmenstein_runtime>  (643) 
37.61863923072815

>  <fragmenstein_outcome>  (643) 
too moved

>  <fragmenstein_mode>  (643) 
expansion

>  <fragmenstein_error>  (643) 


$$$$
C1929-P50
     RDKit          3D

 56 59  0  0  0  0  0  0  0  0999 V2000
   19.5364   -3.9646    9.1532 C   0  0  0  0  0  0  0  0  0  0  0  0
   19.1563   -3.8945   10.6180 C   0  0  0  0  0  0  0  0  0  0  0  0
   18.4666   -4.7427   11.1197 O   0  0  0  0  0  0  0  0  0  0  0  0
   19.7875   -2.7481   11.1946 N   0  0  0  0  0  0  0  0  0  0  0  0
   18.8553   -1.5304   11.1066 C   0  0  0  0  0  0  0  0  0  0  0  0
   17.4387   -1.6177   11.7360 C   0  0  0  0  0  0  0  0  0  0  0  0
   17.5329   -1.7903   13.1884 N   0  0  0  0  0  0  0  0  0  0  0  0
   16.3812   -1.9214   13.9485 C   0  0  0  0  0  0  0  0  0  0  0  0
   15.2222   -1.2629   13.8514 C   0  0  0  0  0  0  0  0  0  0  0  0
   14.0204   -1.5819   14.7030 C   0  0  0  0  0  0  0  0  0  0  0  0
   14.1376   -0.9785   16.0725 C   0  0  0  0  0  0  0  0  0  0  0  0
   13.6308    0.2505   16.3036 C   0  0  0  0  0  0  0  0  0  0  0  0
   13.9543    0.8568   17.5695 C   0  0  0  0  0  0  0  0  0  0  0  0
   13.7099    2.0777   18.0735 C   0  0  0  0  0  0  0  0  0  0  0  0
   12.9240    3.0435   17.5450 N   0  0  0  0  0  0  0  0  0  0  0  0
   11.7695    2.9582   16.6835 C   0  0  0  0  0  0  0  0  0  0  0  0
   11.1598    2.0021   16.2769 O   0  0  0  0  0  0  0  0  0  0  0  0
   11.3626    4.3437   16.1551 C   0  0  0  0  0  0  0  0  0  0  0  0
   11.1888    4.2580   14.6631 C   0  0  0  0  0  0  0  0  0  0  0  0
   11.5910    5.0671   13.6262 C   0  0  0  0  0  0  0  0  0  0  0  0
   11.1445    4.4096   12.4650 C   0  0  0  0  0  0  0  0  0  0  0  0
   10.4692    3.2855   12.7301 N   0  0  0  0  0  0  0  0  0  0  0  0
   10.5630    3.1890   14.0692 N   0  0  0  0  0  0  0  0  0  0  0  0
   14.4543    2.2472   19.3167 C   0  0  0  0  0  0  0  0  0  0  0  0
   15.1086    1.1059   19.6134 C   0  0  0  0  0  0  0  0  0  0  0  0
   14.8327    0.1968   18.5320 C   0  0  0  0  0  0  0  0  0  0  0  0
   15.2273   -1.0543   18.2536 C   0  0  0  0  0  0  0  0  0  0  0  0
   14.8437   -1.6659   17.0690 N   0  0  0  0  0  0  0  0  0  0  0  0
   18.6935   -2.6119   13.5540 C   0  0  0  0  0  0  0  0  0  0  0  0
   19.8858   -2.2963   12.6313 C   0  0  0  0  0  0  0  0  0  0  0  0
   18.8216   -3.3912    8.5581 H   0  0  0  0  0  0  0  0  0  0  0  0
   20.5439   -3.5704    8.9898 H   0  0  0  0  0  0  0  0  0  0  0  0
   19.5273   -5.0089    8.8275 H   0  0  0  0  0  0  0  0  0  0  0  0
   19.3602   -0.5705   11.3099 H   0  0  0  0  0  0  0  0  0  0  0  0
   18.6600   -1.4464   10.0257 H   0  0  0  0  0  0  0  0  0  0  0  0
   16.8800   -2.4509   11.2931 H   0  0  0  0  0  0  0  0  0  0  0  0
   16.8982   -0.6937   11.5001 H   0  0  0  0  0  0  0  0  0  0  0  0
   16.4824   -2.6876   14.7167 H   0  0  0  0  0  0  0  0  0  0  0  0
   15.1086   -0.4688   13.1223 H   0  0  0  0  0  0  0  0  0  0  0  0
   13.1223   -1.2030   14.1984 H   0  0  0  0  0  0  0  0  0  0  0  0
   13.8681   -2.6609   14.7807 H   0  0  0  0  0  0  0  0  0  0  0  0
   13.1267    0.8130   15.5314 H   0  0  0  0  0  0  0  0  0  0  0  0
   13.1156    4.0164   17.7446 H   0  0  0  0  0  0  0  0  0  0  0  0
   12.1123    5.1052   16.3909 H   0  0  0  0  0  0  0  0  0  0  0  0
   10.4193    4.6292   16.6327 H   0  0  0  0  0  0  0  0  0  0  0  0
   12.1426    5.9946   13.6918 H   0  0  0  0  0  0  0  0  0  0  0  0
   11.2838    4.7178   11.4372 H   0  0  0  0  0  0  0  0  0  0  0  0
   10.2319    2.3480   14.5411 H   0  0  0  0  0  0  0  0  0  0  0  0
   14.4346    3.1390   19.9225 H   0  0  0  0  0  0  0  0  0  0  0  0
   15.7224    0.9029   20.4745 H   0  0  0  0  0  0  0  0  0  0  0  0
   15.8783   -1.6391   18.8924 H   0  0  0  0  0  0  0  0  0  0  0  0
   15.3013   -2.5326   16.8083 H   0  0  0  0  0  0  0  0  0  0  0  0
   18.4405   -3.6770   13.5000 H   0  0  0  0  0  0  0  0  0  0  0  0
   18.9826   -2.3939   14.5894 H   0  0  0  0  0  0  0  0  0  0  0  0
   20.3303   -1.2986   12.7821 H   0  0  0  0  0  0  0  0  0  0  0  0
   20.6848   -2.9555   13.0050 H   0  0  0  0  0  0  0  0  0  0  0  0
  1  2  1  0
  2  3  2  0
  2  4  1  0
  4  5  1  0
  5  6  1  0
  6  7  1  0
  7  8  1  0
  8  9  2  3
  9 10  1  0
 10 11  1  0
 11 12  2  0
 12 13  1  0
 13 14  2  0
 14 15  1  0
 15 16  1  0
 16 17  2  0
 16 18  1  0
 18 19  1  0
 19 20  2  0
 20 21  1  0
 21 22  2  0
 22 23  1  0
 14 24  1  0
 24 25  2  0
 25 26  1  0
 26 27  2  0
 27 28  1  0
  7 29  1  0
 29 30  1  0
 30  4  1  0
 28 11  1  0
 26 13  1  0
 23 19  1  0
  1 31  1  0
  1 32  1  0
  1 33  1  0
  5 34  1  0
  5 35  1  0
  6 36  1  0
  6 37  1  0
  8 38  1  0
  9 39  1  0
 10 40  1  0
 10 41  1  0
 12 42  1  0
 15 43  1  0
 18 44  1  0
 18 45  1  0
 20 46  1  0
 21 47  1  0
 23 48  1  0
 24 49  1  0
 25 50  1  0
 27 51  1  0
 28 52  1  0
 29 53  1  0
 29 54  1  0
 30 55  1  0
 30 56  1  0
M  END
>  <Energy>  (644) 
212.03222978378602

>  <compound_id>  (644) 
1929

>  <target_id>  (644) 
1

>  <reference_id>  (644) 
50

>  <inspiration_ids>  (644) 
[29, 50]

>  <energy_score>  (644) 
-8.317903452395456

>  <distance_score>  (644) 
2.648282442793811

>  <path>  (644) 
/opt/xchem-fragalysis-2/maxwin/BulkDock/SCRATCH/505732/C1929-P50/C1929-P50.minimised.mol

>  <scratch_subdir>  (644) 
/opt/xchem-fragalysis-2/maxwin/BulkDock/SCRATCH/505732/C1929-P50

>  <fragmenstein_runtime>  (644) 
17.004204034805298

>  <fragmenstein_outcome>  (644) 
too moved

>  <fragmenstein_mode>  (644) 
expansion

>  <fragmenstein_error>  (644) 


$$$$
C1932-P29
     RDKit          3D

 49 51  0  0  0  0  0  0  0  0999 V2000
   18.0267   -1.4312   16.7796 C   0  0  0  0  0  0  0  0  0  0  0  0
   16.6570   -1.9763   17.2140 C   0  0  0  0  0  0  0  0  0  0  0  0
   15.9853   -2.5840   16.4241 N   0  0  0  0  0  0  0  0  0  0  0  0
   16.2279   -2.8398   15.0522 C   0  0  0  0  0  0  0  0  0  0  0  0
   15.5394   -1.8501   14.2048 C   0  0  0  0  0  0  0  0  0  0  0  0
   16.2825   -1.1284   13.2781 C   0  0  0  0  0  0  0  0  0  0  0  0
   15.6546   -0.2045   12.4906 C   0  0  0  0  0  0  0  0  0  0  0  0
   14.2923   -0.0500   12.6594 C   0  0  0  0  0  0  0  0  0  0  0  0
   13.6254    0.9945   11.8495 C   0  0  0  0  0  0  0  0  0  0  0  0
   13.5419   -0.7185   13.5761 N   0  0  0  0  0  0  0  0  0  0  0  0
   14.1839   -1.6115   14.3354 C   0  0  0  0  0  0  0  0  0  0  0  0
   16.4394   -1.7114   18.6594 N   0  0  0  0  0  0  0  0  0  0  0  0
   15.6193   -0.3454   18.8881 C   0  0  0  0  0  0  0  0  0  0  0  0
   16.2149    0.8100   18.0737 C   0  0  0  0  0  0  0  0  0  0  0  0
   15.6544   -0.0382   20.3646 C   0  0  0  0  0  0  0  0  0  0  0  0
   15.4269   -1.4121   20.9016 C   0  0  0  0  0  0  0  0  0  0  0  0
   15.3560   -2.2092   19.6151 C   0  0  0  0  0  0  0  0  0  0  0  0
   15.4631   -3.7534   19.8861 C   0  0  0  0  0  0  0  0  0  0  0  0
   14.2222   -4.1457   20.5331 O   0  0  0  0  0  0  0  0  0  0  0  0
   16.7690   -4.2495   20.5986 C   0  0  0  0  0  0  0  0  0  0  0  0
   17.2840   -4.7610   19.2432 C   0  0  0  0  0  0  0  0  0  0  0  0
   15.8323   -4.7810   18.7501 C   0  0  0  0  0  0  0  0  0  0  0  0
   18.6691   -2.2623   16.4730 H   0  0  0  0  0  0  0  0  0  0  0  0
   18.5273   -0.9175   17.6049 H   0  0  0  0  0  0  0  0  0  0  0  0
   17.9105   -0.7310   15.9484 H   0  0  0  0  0  0  0  0  0  0  0  0
   15.8778   -3.8347   14.8494 H   0  0  0  0  0  0  0  0  0  0  0  0
   17.2970   -2.8896   14.8141 H   0  0  0  0  0  0  0  0  0  0  0  0
   17.3516   -1.2891   13.1721 H   0  0  0  0  0  0  0  0  0  0  0  0
   16.2105    0.3781   11.7658 H   0  0  0  0  0  0  0  0  0  0  0  0
   13.6247    1.9399   12.4026 H   0  0  0  0  0  0  0  0  0  0  0  0
   12.5848    0.7273   11.6460 H   0  0  0  0  0  0  0  0  0  0  0  0
   14.1280    1.1693   10.8942 H   0  0  0  0  0  0  0  0  0  0  0  0
   13.5772   -2.1393   15.0634 H   0  0  0  0  0  0  0  0  0  0  0  0
   14.5971   -0.4188   18.4908 H   0  0  0  0  0  0  0  0  0  0  0  0
   15.6938    1.7455   18.3063 H   0  0  0  0  0  0  0  0  0  0  0  0
   17.2759    0.9549   18.2998 H   0  0  0  0  0  0  0  0  0  0  0  0
   16.1082    0.6423   16.9977 H   0  0  0  0  0  0  0  0  0  0  0  0
   14.8777    0.6723   20.6623 H   0  0  0  0  0  0  0  0  0  0  0  0
   16.6265    0.3513   20.6866 H   0  0  0  0  0  0  0  0  0  0  0  0
   16.2536   -1.7061   21.5545 H   0  0  0  0  0  0  0  0  0  0  0  0
   14.5085   -1.4881   21.4869 H   0  0  0  0  0  0  0  0  0  0  0  0
   14.3689   -2.1469   19.1343 H   0  0  0  0  0  0  0  0  0  0  0  0
   14.3382   -5.0776   20.7866 H   0  0  0  0  0  0  0  0  0  0  0  0
   17.4133   -3.4981   21.0611 H   0  0  0  0  0  0  0  0  0  0  0  0
   16.5969   -5.0478   21.3305 H   0  0  0  0  0  0  0  0  0  0  0  0
   17.7845   -5.7329   19.2680 H   0  0  0  0  0  0  0  0  0  0  0  0
   17.9327   -4.0535   18.7181 H   0  0  0  0  0  0  0  0  0  0  0  0
   15.6508   -4.5044   17.7168 H   0  0  0  0  0  0  0  0  0  0  0  0
   15.3605   -5.7642   18.8884 H   0  0  0  0  0  0  0  0  0  0  0  0
  1  2  1  0
  2  3  2  3
  3  4  1  0
  4  5  1  0
  5  6  2  0
  6  7  1  0
  7  8  2  0
  8  9  1  0
  8 10  1  0
 10 11  2  0
  2 12  1  0
 12 13  1  0
 13 14  1  0
 13 15  1  0
 15 16  1  0
 16 17  1  0
 17 18  1  0
 18 19  1  0
 18 20  1  0
 20 21  1  0
 21 22  1  0
 11  5  1  0
 17 12  1  0
 22 18  1  0
  1 23  1  0
  1 24  1  0
  1 25  1  0
  4 26  1  0
  4 27  1  0
  6 28  1  0
  7 29  1  0
  9 30  1  0
  9 31  1  0
  9 32  1  0
 11 33  1  0
 13 34  1  0
 14 35  1  0
 14 36  1  0
 14 37  1  0
 15 38  1  0
 15 39  1  0
 16 40  1  0
 16 41  1  0
 17 42  1  0
 19 43  1  0
 20 44  1  0
 20 45  1  0
 21 46  1  0
 21 47  1  0
 22 48  1  0
 22 49  1  0
M  END
>  <Energy>  (645) 
117.73082695207867

>  <compound_id>  (645) 
1932

>  <target_id>  (645) 
1

>  <reference_id>  (645) 
29

>  <inspiration_ids>  (645) 
[29, 61]

>  <energy_score>  (645) 
19.832479815765225

>  <distance_score>  (645) 
2.7837852408812096

>  <path>  (645) 
/opt/xchem-fragalysis-2/maxwin/BulkDock/SCRATCH/505732/C1932-P29/C1932-P29.minimised.mol

>  <scratch_subdir>  (645) 
/opt/xchem-fragalysis-2/maxwin/BulkDock/SCRATCH/505732/C1932-P29

>  <fragmenstein_runtime>  (645) 
55.91684055328369

>  <fragmenstein_outcome>  (645) 
too moved

>  <fragmenstein_mode>  (645) 
expansion

>  <fragmenstein_error>  (645) 


$$$$
C1932-P61
     RDKit          3D

 49 51  0  0  0  0  0  0  0  0999 V2000
   14.9361    0.5212   16.2316 C   0  0  0  0  0  0  0  0  0  0  0  0
   14.2476   -0.5163   17.1584 C   0  0  0  0  0  0  0  0  0  0  0  0
   13.1461   -0.9774   16.8994 N   0  0  0  0  0  0  0  0  0  0  0  0
   12.4766   -0.8437   15.5959 C   0  0  0  0  0  0  0  0  0  0  0  0
   13.4026   -1.1871   14.4660 C   0  0  0  0  0  0  0  0  0  0  0  0
   13.4970   -0.4114   13.3145 C   0  0  0  0  0  0  0  0  0  0  0  0
   14.5357   -0.6489   12.4174 C   0  0  0  0  0  0  0  0  0  0  0  0
   15.4557   -1.6526   12.7001 C   0  0  0  0  0  0  0  0  0  0  0  0
   16.5806   -1.9381   11.7533 C   0  0  0  0  0  0  0  0  0  0  0  0
   15.3755   -2.4149   13.8127 N   0  0  0  0  0  0  0  0  0  0  0  0
   14.3405   -2.1959   14.6416 C   0  0  0  0  0  0  0  0  0  0  0  0
   15.2192   -0.8564   18.2763 N   0  0  0  0  0  0  0  0  0  0  0  0
   14.9604    0.0425   19.5634 C   0  0  0  0  0  0  0  0  0  0  0  0
   15.0142    1.5233   19.1704 C   0  0  0  0  0  0  0  0  0  0  0  0
   16.0931   -0.2301   20.5418 C   0  0  0  0  0  0  0  0  0  0  0  0
   16.3121   -1.6887   20.3132 C   0  0  0  0  0  0  0  0  0  0  0  0
   15.1646   -1.9635   19.3734 C   0  0  0  0  0  0  0  0  0  0  0  0
   15.2331   -3.3719   18.6780 C   0  0  0  0  0  0  0  0  0  0  0  0
   13.9286   -3.6684   18.1050 O   0  0  0  0  0  0  0  0  0  0  0  0
   15.7481   -4.5691   19.5429 C   0  0  0  0  0  0  0  0  0  0  0  0
   17.0847   -4.5198   18.7930 C   0  0  0  0  0  0  0  0  0  0  0  0
   16.4172   -3.6664   17.7062 C   0  0  0  0  0  0  0  0  0  0  0  0
   14.2068    1.2108   15.8003 H   0  0  0  0  0  0  0  0  0  0  0  0
   15.5109    0.0190   15.4533 H   0  0  0  0  0  0  0  0  0  0  0  0
   15.6742    1.1171   16.7664 H   0  0  0  0  0  0  0  0  0  0  0  0
   12.0669    0.1679   15.4942 H   0  0  0  0  0  0  0  0  0  0  0  0
   11.6291   -1.5382   15.5693 H   0  0  0  0  0  0  0  0  0  0  0  0
   12.7973    0.3984   13.1308 H   0  0  0  0  0  0  0  0  0  0  0  0
   14.6283   -0.0514   11.5168 H   0  0  0  0  0  0  0  0  0  0  0  0
   16.1872   -2.3244   10.8081 H   0  0  0  0  0  0  0  0  0  0  0  0
   17.2640   -2.6837   12.1716 H   0  0  0  0  0  0  0  0  0  0  0  0
   17.1545   -1.0268   11.5585 H   0  0  0  0  0  0  0  0  0  0  0  0
   14.3235   -2.8480   15.5096 H   0  0  0  0  0  0  0  0  0  0  0  0
   13.9585   -0.1101   19.9917 H   0  0  0  0  0  0  0  0  0  0  0  0
   14.8917    2.1461   20.0648 H   0  0  0  0  0  0  0  0  0  0  0  0
   15.9741    1.7980   18.7227 H   0  0  0  0  0  0  0  0  0  0  0  0
   14.2026    1.7981   18.4906 H   0  0  0  0  0  0  0  0  0  0  0  0
   15.7950   -0.0017   21.5701 H   0  0  0  0  0  0  0  0  0  0  0  0
   17.0047    0.3350   20.3175 H   0  0  0  0  0  0  0  0  0  0  0  0
   16.2615   -2.2663   21.2400 H   0  0  0  0  0  0  0  0  0  0  0  0
   17.2895   -1.8565   19.8508 H   0  0  0  0  0  0  0  0  0  0  0  0
   14.2050   -2.0019   19.9181 H   0  0  0  0  0  0  0  0  0  0  0  0
   13.6506   -2.8362   17.6678 H   0  0  0  0  0  0  0  0  0  0  0  0
   15.8096   -4.4141   20.6229 H   0  0  0  0  0  0  0  0  0  0  0  0
   15.1959   -5.5013   19.3742 H   0  0  0  0  0  0  0  0  0  0  0  0
   17.4651   -5.4883   18.4559 H   0  0  0  0  0  0  0  0  0  0  0  0
   17.8828   -4.0063   19.3382 H   0  0  0  0  0  0  0  0  0  0  0  0
   17.0042   -2.8050   17.3757 H   0  0  0  0  0  0  0  0  0  0  0  0
   16.1261   -4.2436   16.8205 H   0  0  0  0  0  0  0  0  0  0  0  0
  1  2  1  0
  2  3  2  3
  3  4  1  0
  4  5  1  0
  5  6  2  0
  6  7  1  0
  7  8  2  0
  8  9  1  0
  8 10  1  0
 10 11  2  0
  2 12  1  0
 12 13  1  0
 13 14  1  0
 13 15  1  0
 15 16  1  0
 16 17  1  0
 17 18  1  0
 18 19  1  0
 18 20  1  0
 20 21  1  0
 21 22  1  0
 11  5  1  0
 17 12  1  0
 22 18  1  0
  1 23  1  0
  1 24  1  0
  1 25  1  0
  4 26  1  0
  4 27  1  0
  6 28  1  0
  7 29  1  0
  9 30  1  0
  9 31  1  0
  9 32  1  0
 11 33  1  0
 13 34  1  0
 14 35  1  0
 14 36  1  0
 14 37  1  0
 15 38  1  0
 15 39  1  0
 16 40  1  0
 16 41  1  0
 17 42  1  0
 19 43  1  0
 20 44  1  0
 20 45  1  0
 21 46  1  0
 21 47  1  0
 22 48  1  0
 22 49  1  0
M  END
>  <Energy>  (646) 
119.61512541629708

>  <compound_id>  (646) 
1932

>  <target_id>  (646) 
1

>  <reference_id>  (646) 
61

>  <inspiration_ids>  (646) 
[29, 61]

>  <energy_score>  (646) 
21.71677827998272

>  <distance_score>  (646) 
1.8142927082547264

>  <path>  (646) 
/opt/xchem-fragalysis-2/maxwin/BulkDock/SCRATCH/505732/C1932-P61/C1932-P61.minimised.mol

>  <scratch_subdir>  (646) 
/opt/xchem-fragalysis-2/maxwin/BulkDock/SCRATCH/505732/C1932-P61

>  <fragmenstein_runtime>  (646) 
34.595683336257935

>  <fragmenstein_outcome>  (646) 
too moved

>  <fragmenstein_mode>  (646) 
expansion

>  <fragmenstein_error>  (646) 


$$$$
C1938-P29
     RDKit          3D

 30 31  0  0  0  0  0  0  0  0999 V2000
   19.3604   -1.3548   11.7626 C   0  0  0  0  0  0  0  0  0  0  0  0
   18.3830   -2.0761   12.6821 C   0  0  0  0  0  0  0  0  0  0  0  0
   18.8924   -2.0053   14.0674 N   0  0  0  0  0  0  0  0  0  0  0  0
   17.0182   -1.4925   12.5973 C   0  0  0  0  0  0  0  0  0  0  0  0
   16.2805   -1.0362   13.5792 N   0  0  0  0  0  0  0  0  0  0  0  0
   15.1173   -0.6986   12.9474 C   0  0  0  0  0  0  0  0  0  0  0  0
   13.9713   -0.0864   13.7254 C   0  0  0  0  0  0  0  0  0  0  0  0
   13.0009    0.5508   12.8233 N   0  0  0  0  0  0  0  0  0  0  0  0
   13.4178   -1.2014   14.6090 C   0  0  0  0  0  0  0  0  0  0  0  0
   12.1639   -1.7912   14.3903 C   0  0  0  0  0  0  0  0  0  0  0  0
   11.6958   -2.8162   15.2160 C   0  0  0  0  0  0  0  0  0  0  0  0
   12.4687   -3.2666   16.2836 C   0  0  0  0  0  0  0  0  0  0  0  0
   13.7100   -2.6923   16.5333 C   0  0  0  0  0  0  0  0  0  0  0  0
   14.1760   -1.6676   15.7067 C   0  0  0  0  0  0  0  0  0  0  0  0
   15.1449   -0.8870   11.6102 N   0  0  0  0  0  0  0  0  0  0  0  0
   16.4072   -1.4384   11.3815 O   0  0  0  0  0  0  0  0  0  0  0  0
   19.4375   -0.2890   12.0092 H   0  0  0  0  0  0  0  0  0  0  0  0
   20.3629   -1.7919   11.8329 H   0  0  0  0  0  0  0  0  0  0  0  0
   19.0434   -1.4273   10.7160 H   0  0  0  0  0  0  0  0  0  0  0  0
   18.3215   -3.1319   12.3934 H   0  0  0  0  0  0  0  0  0  0  0  0
   18.1362   -2.2920   14.6938 H   0  0  0  0  0  0  0  0  0  0  0  0
   19.6408   -2.6836   14.1866 H   0  0  0  0  0  0  0  0  0  0  0  0
   14.3661    0.7000   14.3806 H   0  0  0  0  0  0  0  0  0  0  0  0
   13.4959    1.2606   12.2881 H   0  0  0  0  0  0  0  0  0  0  0  0
   12.7276   -0.1508   12.1400 H   0  0  0  0  0  0  0  0  0  0  0  0
   11.5286   -1.4559   13.5736 H   0  0  0  0  0  0  0  0  0  0  0  0
   10.7354   -3.2764   15.0001 H   0  0  0  0  0  0  0  0  0  0  0  0
   12.1222   -4.0903   16.9019 H   0  0  0  0  0  0  0  0  0  0  0  0
   14.3204   -3.0515   17.3578 H   0  0  0  0  0  0  0  0  0  0  0  0
   15.1523   -1.2332   15.9182 H   0  0  0  0  0  0  0  0  0  0  0  0
  1  2  1  0
  2  3  1  0
  2  4  1  0
  4  5  2  0
  5  6  1  0
  6  7  1  0
  7  8  1  0
  7  9  1  0
  9 10  2  0
 10 11  1  0
 11 12  2  0
 12 13  1  0
 13 14  2  0
  6 15  2  0
 15 16  1  0
 16  4  1  0
 14  9  1  0
  1 17  1  0
  1 18  1  0
  1 19  1  0
  2 20  1  0
  3 21  1  0
  3 22  1  0
  7 23  1  0
  8 24  1  0
  8 25  1  0
 10 26  1  0
 11 27  1  0
 12 28  1  0
 13 29  1  0
 14 30  1  0
M  END
>  <Energy>  (647) 
92.266251002448527

>  <compound_id>  (647) 
1938

>  <target_id>  (647) 
1

>  <reference_id>  (647) 
29

>  <inspiration_ids>  (647) 
[29, 83]

>  <energy_score>  (647) 
-23.566230201038366

>  <distance_score>  (647) 
1.1985942201554294

>  <path>  (647) 
/opt/xchem-fragalysis-2/maxwin/BulkDock/SCRATCH/505732/C1938-P29/C1938-P29.minimised.mol

>  <scratch_subdir>  (647) 
/opt/xchem-fragalysis-2/maxwin/BulkDock/SCRATCH/505732/C1938-P29

>  <fragmenstein_runtime>  (647) 
1.3970458507537842

>  <fragmenstein_outcome>  (647) 
too moved

>  <fragmenstein_mode>  (647) 
expansion

>  <fragmenstein_error>  (647) 


$$$$
C1938-P83
     RDKit          3D

 30 31  0  0  0  0  0  0  0  0999 V2000
   19.1651   -1.3187   11.6612 C   0  0  0  0  0  0  0  0  0  0  0  0
   18.2577   -2.0529   12.6408 C   0  0  0  0  0  0  0  0  0  0  0  0
   18.8479   -1.9538   13.9932 N   0  0  0  0  0  0  0  0  0  0  0  0
   16.8722   -1.5057   12.6413 C   0  0  0  0  0  0  0  0  0  0  0  0
   16.1478   -1.1728   13.6823 N   0  0  0  0  0  0  0  0  0  0  0  0
   14.9722   -0.7642   13.1154 C   0  0  0  0  0  0  0  0  0  0  0  0
   13.8665   -0.2008   13.9842 C   0  0  0  0  0  0  0  0  0  0  0  0
   12.8488    0.5283   13.2122 N   0  0  0  0  0  0  0  0  0  0  0  0
   13.3433   -1.3702   14.8098 C   0  0  0  0  0  0  0  0  0  0  0  0
   12.2005   -2.1070   14.4631 C   0  0  0  0  0  0  0  0  0  0  0  0
   11.7972   -3.2107   15.2217 C   0  0  0  0  0  0  0  0  0  0  0  0
   12.5251   -3.6017   16.3412 C   0  0  0  0  0  0  0  0  0  0  0  0
   13.6520   -2.8791   16.7148 C   0  0  0  0  0  0  0  0  0  0  0  0
   14.0541   -1.7738   15.9601 C   0  0  0  0  0  0  0  0  0  0  0  0
   14.9673   -0.8182   11.7665 N   0  0  0  0  0  0  0  0  0  0  0  0
   16.2290   -1.3350   11.4523 O   0  0  0  0  0  0  0  0  0  0  0  0
   19.2280   -0.2484   11.8915 H   0  0  0  0  0  0  0  0  0  0  0  0
   20.1807   -1.7299   11.6806 H   0  0  0  0  0  0  0  0  0  0  0  0
   18.7933   -1.4123   10.6345 H   0  0  0  0  0  0  0  0  0  0  0  0
   18.2041   -3.1127   12.3658 H   0  0  0  0  0  0  0  0  0  0  0  0
   18.1381   -2.2531   14.6660 H   0  0  0  0  0  0  0  0  0  0  0  0
   19.6170   -2.6154   14.0701 H   0  0  0  0  0  0  0  0  0  0  0  0
   14.3128    0.5308   14.6697 H   0  0  0  0  0  0  0  0  0  0  0  0
   13.3404    1.1790   12.6010 H   0  0  0  0  0  0  0  0  0  0  0  0
   12.4113   -0.1373   12.5791 H   0  0  0  0  0  0  0  0  0  0  0  0
   11.6069   -1.8431   13.5928 H   0  0  0  0  0  0  0  0  0  0  0  0
   10.9199   -3.7786   14.9258 H   0  0  0  0  0  0  0  0  0  0  0  0
   12.2233   -4.4779   16.9118 H   0  0  0  0  0  0  0  0  0  0  0  0
   14.2272   -3.1880   17.5837 H   0  0  0  0  0  0  0  0  0  0  0  0
   14.9519   -1.2356   16.2610 H   0  0  0  0  0  0  0  0  0  0  0  0
  1  2  1  0
  2  3  1  0
  2  4  1  0
  4  5  2  0
  5  6  1  0
  6  7  1  0
  7  8  1  0
  7  9  1  0
  9 10  2  0
 10 11  1  0
 11 12  2  0
 12 13  1  0
 13 14  2  0
  6 15  2  0
 15 16  1  0
 16  4  1  0
 14  9  1  0
  1 17  1  0
  1 18  1  0
  1 19  1  0
  2 20  1  0
  3 21  1  0
  3 22  1  0
  7 23  1  0
  8 24  1  0
  8 25  1  0
 10 26  1  0
 11 27  1  0
 12 28  1  0
 13 29  1  0
 14 30  1  0
M  END
>  <Energy>  (648) 
92.417029321927586

>  <compound_id>  (648) 
1938

>  <target_id>  (648) 
1

>  <reference_id>  (648) 
83

>  <inspiration_ids>  (648) 
[29, 83]

>  <energy_score>  (648) 
-23.41545188155908

>  <distance_score>  (648) 
1.207209202278579

>  <path>  (648) 
/opt/xchem-fragalysis-2/maxwin/BulkDock/SCRATCH/505732/C1938-P83/C1938-P83.minimised.mol

>  <scratch_subdir>  (648) 
/opt/xchem-fragalysis-2/maxwin/BulkDock/SCRATCH/505732/C1938-P83

>  <fragmenstein_runtime>  (648) 
1.4019997119903564

>  <fragmenstein_outcome>  (648) 
too moved

>  <fragmenstein_mode>  (648) 
expansion

>  <fragmenstein_error>  (648) 


$$$$
C1939-P29
     RDKit          3D

 42 43  0  0  0  0  0  0  0  0999 V2000
   17.9782   -1.8593    9.8680 C   0  0  0  0  0  0  0  0  0  0  0  0
   16.7076   -1.1077   10.2462 C   0  0  0  0  0  0  0  0  0  0  0  0
   16.8842    0.3286    9.9739 N   0  0  0  0  0  0  0  0  0  0  0  0
   16.2794   -1.3553   11.6554 C   0  0  0  0  0  0  0  0  0  0  0  0
   15.0596   -1.3525   12.1476 N   0  0  0  0  0  0  0  0  0  0  0  0
   15.2795   -1.5989   13.4854 C   0  0  0  0  0  0  0  0  0  0  0  0
   14.1089   -1.6860   14.4209 C   0  0  0  0  0  0  0  0  0  0  0  0
   14.5407   -1.5079   15.8567 C   0  0  0  0  0  0  0  0  0  0  0  0
   15.0856   -0.2629   16.2043 C   0  0  0  0  0  0  0  0  0  0  0  0
   15.4455    0.0031   17.5128 C   0  0  0  0  0  0  0  0  0  0  0  0
   15.9496    1.2042   17.8254 F   0  0  0  0  0  0  0  0  0  0  0  0
   15.2487   -0.9265   18.5134 C   0  0  0  0  0  0  0  0  0  0  0  0
   14.7087   -2.1576   18.2000 C   0  0  0  0  0  0  0  0  0  0  0  0
   14.3757   -2.4718   16.8841 C   0  0  0  0  0  0  0  0  0  0  0  0
   13.8270   -3.6856   16.6031 O   0  0  0  0  0  0  0  0  0  0  0  0
   14.1180   -4.7726   17.4792 C   0  0  0  0  0  0  0  0  0  0  0  0
   15.5974   -5.1641   17.7767 C   0  0  0  0  0  0  0  0  0  0  0  0
   16.5275   -4.6765   17.2463 O   0  0  0  0  0  0  0  0  0  0  0  0
   15.5243   -6.2991   18.7923 N   0  0  0  0  0  0  0  0  0  0  0  0
   16.5945   -7.1885   19.3338 C   0  0  0  0  0  0  0  0  0  0  0  0
   15.6034   -5.7747   20.2033 C   0  0  0  0  0  0  0  0  0  0  0  0
   16.5793   -1.7419   13.8040 N   0  0  0  0  0  0  0  0  0  0  0  0
   17.2430   -1.5685   12.5941 O   0  0  0  0  0  0  0  0  0  0  0  0
   18.2077   -1.7317    8.8041 H   0  0  0  0  0  0  0  0  0  0  0  0
   17.8680   -2.9331   10.0573 H   0  0  0  0  0  0  0  0  0  0  0  0
   18.8449   -1.5104   10.4417 H   0  0  0  0  0  0  0  0  0  0  0  0
   15.9013   -1.4665    9.5970 H   0  0  0  0  0  0  0  0  0  0  0  0
   17.0234    0.4725    8.9768 H   0  0  0  0  0  0  0  0  0  0  0  0
   16.0187    0.8103   10.2209 H   0  0  0  0  0  0  0  0  0  0  0  0
   13.3895   -0.8939   14.1748 H   0  0  0  0  0  0  0  0  0  0  0  0
   13.5771   -2.6249   14.2665 H   0  0  0  0  0  0  0  0  0  0  0  0
   15.2340    0.5158   15.4599 H   0  0  0  0  0  0  0  0  0  0  0  0
   15.5252   -0.6825   19.5342 H   0  0  0  0  0  0  0  0  0  0  0  0
   14.5616   -2.8461   19.0240 H   0  0  0  0  0  0  0  0  0  0  0  0
   13.6886   -5.6573   17.0018 H   0  0  0  0  0  0  0  0  0  0  0  0
   13.5549   -4.6465   18.4109 H   0  0  0  0  0  0  0  0  0  0  0  0
   16.2555   -7.9354   20.0671 H   0  0  0  0  0  0  0  0  0  0  0  0
   17.5470   -6.6911   19.5744 H   0  0  0  0  0  0  0  0  0  0  0  0
   16.8673   -7.7980   18.4592 H   0  0  0  0  0  0  0  0  0  0  0  0
   14.8182   -5.0075   20.2632 H   0  0  0  0  0  0  0  0  0  0  0  0
   15.3086   -6.4840   20.9923 H   0  0  0  0  0  0  0  0  0  0  0  0
   16.5173   -5.1996   20.4227 H   0  0  0  0  0  0  0  0  0  0  0  0
  1  2  1  0
  2  3  1  0
  2  4  1  0
  4  5  2  0
  5  6  1  0
  6  7  1  0
  7  8  1  0
  8  9  2  0
  9 10  1  0
 10 11  1  0
 10 12  2  0
 12 13  1  0
 13 14  2  0
 14 15  1  0
 15 16  1  0
 16 17  1  0
 17 18  2  0
 17 19  1  0
 19 20  1  0
 19 21  1  0
  6 22  2  0
 22 23  1  0
 23  4  1  0
 14  8  1  0
  1 24  1  0
  1 25  1  0
  1 26  1  0
  2 27  1  0
  3 28  1  0
  3 29  1  0
  7 30  1  0
  7 31  1  0
  9 32  1  0
 12 33  1  0
 13 34  1  0
 16 35  1  0
 16 36  1  0
 20 37  1  0
 20 38  1  0
 20 39  1  0
 21 40  1  0
 21 41  1  0
 21 42  1  0
M  END
>  <Energy>  (649) 
169.97579687919765

>  <compound_id>  (649) 
1939

>  <target_id>  (649) 
1

>  <reference_id>  (649) 
29

>  <inspiration_ids>  (649) 
[29, 86]

>  <energy_score>  (649) 
54.21060063674544

>  <distance_score>  (649) 
2.3263487707329915

>  <path>  (649) 
/opt/xchem-fragalysis-2/maxwin/BulkDock/SCRATCH/505732/C1939-P29/C1939-P29.minimised.mol

>  <scratch_subdir>  (649) 
/opt/xchem-fragalysis-2/maxwin/BulkDock/SCRATCH/505732/C1939-P29

>  <fragmenstein_runtime>  (649) 
3.588313102722168

>  <fragmenstein_outcome>  (649) 
too moved

>  <fragmenstein_mode>  (649) 
expansion

>  <fragmenstein_error>  (649) 


$$$$
C1939-P86
     RDKit          3D

 42 43  0  0  0  0  0  0  0  0999 V2000
   18.0679   -1.8937    9.9522 C   0  0  0  0  0  0  0  0  0  0  0  0
   16.9571   -0.9122   10.3042 C   0  0  0  0  0  0  0  0  0  0  0  0
   17.4333    0.4652   10.1029 N   0  0  0  0  0  0  0  0  0  0  0  0
   16.4337   -1.1334   11.6827 C   0  0  0  0  0  0  0  0  0  0  0  0
   15.1845   -1.2493   12.0700 N   0  0  0  0  0  0  0  0  0  0  0  0
   15.3065   -1.3676   13.4354 C   0  0  0  0  0  0  0  0  0  0  0  0
   14.0677   -1.5422   14.2411 C   0  0  0  0  0  0  0  0  0  0  0  0
   14.3161   -1.5785   15.7235 C   0  0  0  0  0  0  0  0  0  0  0  0
   14.2944   -0.3531   16.3994 C   0  0  0  0  0  0  0  0  0  0  0  0
   14.3591   -0.3148   17.7835 C   0  0  0  0  0  0  0  0  0  0  0  0
   14.3327    0.8711   18.4065 F   0  0  0  0  0  0  0  0  0  0  0  0
   14.3972   -1.4734   18.5367 C   0  0  0  0  0  0  0  0  0  0  0  0
   14.3938   -2.6932   17.8960 C   0  0  0  0  0  0  0  0  0  0  0  0
   14.4542   -2.7418   16.5068 C   0  0  0  0  0  0  0  0  0  0  0  0
   14.6225   -4.0045   16.0290 O   0  0  0  0  0  0  0  0  0  0  0  0
   15.9962   -4.2758   15.7330 C   0  0  0  0  0  0  0  0  0  0  0  0
   17.0955   -4.1164   16.8250 C   0  0  0  0  0  0  0  0  0  0  0  0
   17.5470   -3.0734   17.1331 O   0  0  0  0  0  0  0  0  0  0  0  0
   17.4636   -5.5229   17.2811 N   0  0  0  0  0  0  0  0  0  0  0  0
   18.5651   -5.9992   18.1702 C   0  0  0  0  0  0  0  0  0  0  0  0
   16.6615   -5.9321   18.4844 C   0  0  0  0  0  0  0  0  0  0  0  0
   16.5739   -1.3136   13.8769 N   0  0  0  0  0  0  0  0  0  0  0  0
   17.3261   -1.1660   12.7126 O   0  0  0  0  0  0  0  0  0  0  0  0
   18.3763   -1.7812    8.9068 H   0  0  0  0  0  0  0  0  0  0  0  0
   17.7354   -2.9286   10.0926 H   0  0  0  0  0  0  0  0  0  0  0  0
   18.9545   -1.7476   10.5805 H   0  0  0  0  0  0  0  0  0  0  0  0
   16.1260   -1.0716    9.6075 H   0  0  0  0  0  0  0  0  0  0  0  0
   17.6693    0.6093    9.1236 H   0  0  0  0  0  0  0  0  0  0  0  0
   16.6721    1.1102   10.3167 H   0  0  0  0  0  0  0  0  0  0  0  0
   13.3836   -0.7139   14.0100 H   0  0  0  0  0  0  0  0  0  0  0  0
   13.5255   -2.4358   13.9300 H   0  0  0  0  0  0  0  0  0  0  0  0
   14.2201    0.5870   15.8592 H   0  0  0  0  0  0  0  0  0  0  0  0
   14.4367   -1.4134   19.6202 H   0  0  0  0  0  0  0  0  0  0  0  0
   14.4295   -3.6040   18.4855 H   0  0  0  0  0  0  0  0  0  0  0  0
   16.3151   -3.7003   14.8596 H   0  0  0  0  0  0  0  0  0  0  0  0
   16.0263   -5.3182   15.3965 H   0  0  0  0  0  0  0  0  0  0  0  0
   18.7612   -5.3722   19.0540 H   0  0  0  0  0  0  0  0  0  0  0  0
   19.4627   -5.8216   17.5590 H   0  0  0  0  0  0  0  0  0  0  0  0
   18.5907   -7.0845   18.3494 H   0  0  0  0  0  0  0  0  0  0  0  0
   15.6202   -5.7209   18.2070 H   0  0  0  0  0  0  0  0  0  0  0  0
   16.6490   -7.0126   18.6951 H   0  0  0  0  0  0  0  0  0  0  0  0
   16.7981   -5.2928   19.3717 H   0  0  0  0  0  0  0  0  0  0  0  0
  1  2  1  0
  2  3  1  0
  2  4  1  0
  4  5  2  0
  5  6  1  0
  6  7  1  0
  7  8  1  0
  8  9  2  0
  9 10  1  0
 10 11  1  0
 10 12  2  0
 12 13  1  0
 13 14  2  0
 14 15  1  0
 15 16  1  0
 16 17  1  0
 17 18  2  0
 17 19  1  0
 19 20  1  0
 19 21  1  0
  6 22  2  0
 22 23  1  0
 23  4  1  0
 14  8  1  0
  1 24  1  0
  1 25  1  0
  1 26  1  0
  2 27  1  0
  3 28  1  0
  3 29  1  0
  7 30  1  0
  7 31  1  0
  9 32  1  0
 12 33  1  0
 13 34  1  0
 16 35  1  0
 16 36  1  0
 20 37  1  0
 20 38  1  0
 20 39  1  0
 21 40  1  0
 21 41  1  0
 21 42  1  0
M  END
>  <Energy>  (650) 
172.97786259996835

>  <compound_id>  (650) 
1939

>  <target_id>  (650) 
1

>  <reference_id>  (650) 
86

>  <inspiration_ids>  (650) 
[29, 86]

>  <energy_score>  (650) 
57.21266635751695

>  <distance_score>  (650) 
2.1399584716179825

>  <path>  (650) 
/opt/xchem-fragalysis-2/maxwin/BulkDock/SCRATCH/505732/C1939-P86/C1939-P86.minimised.mol

>  <scratch_subdir>  (650) 
/opt/xchem-fragalysis-2/maxwin/BulkDock/SCRATCH/505732/C1939-P86

>  <fragmenstein_runtime>  (650) 
2.7487757205963135

>  <fragmenstein_outcome>  (650) 
too moved

>  <fragmenstein_mode>  (650) 
expansion

>  <fragmenstein_error>  (650) 


$$$$
C1941-P29
     RDKit          3D

 39 40  0  0  0  0  0  0  0  0999 V2000
   15.1394   -5.1786   20.2988 C   0  0  0  0  0  0  0  0  0  0  0  0
   14.7578   -3.7124   20.2861 C   0  0  0  0  0  0  0  0  0  0  0  0
   15.2420   -2.8724   18.7827 S   0  0  0  0  0  0  0  0  0  0  0  0
   14.7742   -1.5043   18.8611 O   0  0  0  0  0  0  0  0  0  0  0  0
   16.6295   -3.1754   18.5035 O   0  0  0  0  0  0  0  0  0  0  0  0
   14.3384   -3.7279   17.6344 N   0  0  0  0  0  0  0  0  0  0  0  0
   13.5714   -2.9979   16.6733 C   0  0  0  0  0  0  0  0  0  0  0  0
   12.3197   -3.5126   16.3478 C   0  0  0  0  0  0  0  0  0  0  0  0
   11.5786   -2.9808   15.2937 C   0  0  0  0  0  0  0  0  0  0  0  0
   12.1001   -1.9399   14.5379 C   0  0  0  0  0  0  0  0  0  0  0  0
   13.3731   -1.4292   14.8179 C   0  0  0  0  0  0  0  0  0  0  0  0
   13.9046   -0.2921   13.9767 C   0  0  0  0  0  0  0  0  0  0  0  0
   14.9987   -0.8388   13.1316 C   0  0  0  0  0  0  0  0  0  0  0  0
   14.9369   -0.9961   11.7958 N   0  0  0  0  0  0  0  0  0  0  0  0
   16.2412   -1.3606   11.4493 O   0  0  0  0  0  0  0  0  0  0  0  0
   16.9452   -1.3772   12.6149 C   0  0  0  0  0  0  0  0  0  0  0  0
   18.4195   -1.5711   12.5897 C   0  0  0  0  0  0  0  0  0  0  0  0
   19.0239   -1.5230   11.1958 C   0  0  0  0  0  0  0  0  0  0  0  0
   19.0539   -0.5217   13.4094 N   0  0  0  0  0  0  0  0  0  0  0  0
   16.2217   -1.1006   13.6742 N   0  0  0  0  0  0  0  0  0  0  0  0
   14.1122   -1.9790   15.8871 C   0  0  0  0  0  0  0  0  0  0  0  0
   14.6576   -5.7241   19.4823 H   0  0  0  0  0  0  0  0  0  0  0  0
   16.2212   -5.3073   20.1951 H   0  0  0  0  0  0  0  0  0  0  0  0
   14.8312   -5.6414   21.2415 H   0  0  0  0  0  0  0  0  0  0  0  0
   13.6771   -3.5927   20.3960 H   0  0  0  0  0  0  0  0  0  0  0  0
   15.2479   -3.1847   21.1103 H   0  0  0  0  0  0  0  0  0  0  0  0
   14.9534   -4.4116   17.1830 H   0  0  0  0  0  0  0  0  0  0  0  0
   11.9322   -4.3631   16.8981 H   0  0  0  0  0  0  0  0  0  0  0  0
   10.6136   -3.4021   15.0309 H   0  0  0  0  0  0  0  0  0  0  0  0
   11.5152   -1.5387   13.7120 H   0  0  0  0  0  0  0  0  0  0  0  0
   14.2806    0.5042   14.6295 H   0  0  0  0  0  0  0  0  0  0  0  0
   13.1156    0.1482   13.3562 H   0  0  0  0  0  0  0  0  0  0  0  0
   18.6396   -2.5448   13.0430 H   0  0  0  0  0  0  0  0  0  0  0  0
   18.6060   -2.3126   10.5607 H   0  0  0  0  0  0  0  0  0  0  0  0
   18.8303   -0.5644   10.6997 H   0  0  0  0  0  0  0  0  0  0  0  0
   20.1093   -1.6710   11.2305 H   0  0  0  0  0  0  0  0  0  0  0  0
   18.5589   -0.4844   14.3047 H   0  0  0  0  0  0  0  0  0  0  0  0
   20.0094   -0.7974   13.6263 H   0  0  0  0  0  0  0  0  0  0  0  0
   15.1157   -1.6076   16.0872 H   0  0  0  0  0  0  0  0  0  0  0  0
  1  2  1  0
  2  3  1  0
  3  4  2  0
  3  5  2  0
  3  6  1  0
  6  7  1  0
  7  8  2  0
  8  9  1  0
  9 10  2  0
 10 11  1  0
 11 12  1  0
 12 13  1  0
 13 14  2  0
 14 15  1  0
 15 16  1  0
 16 17  1  0
 17 18  1  0
 17 19  1  0
 16 20  2  0
 11 21  2  0
 21  7  1  0
 20 13  1  0
  1 22  1  0
  1 23  1  0
  1 24  1  0
  2 25  1  0
  2 26  1  0
  6 27  1  0
  8 28  1  0
  9 29  1  0
 10 30  1  0
 12 31  1  0
 12 32  1  0
 17 33  1  0
 18 34  1  0
 18 35  1  0
 18 36  1  0
 19 37  1  0
 19 38  1  0
 21 39  1  0
M  END
>  <Energy>  (651) 
14.527467459585399

>  <compound_id>  (651) 
1941

>  <target_id>  (651) 
1

>  <reference_id>  (651) 
29

>  <inspiration_ids>  (651) 
[29, 97]

>  <energy_score>  (651) 
-40.38604267505161

>  <distance_score>  (651) 
1.285342980916242

>  <path>  (651) 
/opt/xchem-fragalysis-2/maxwin/BulkDock/SCRATCH/505732/C1941-P29/C1941-P29.minimised.mol

>  <scratch_subdir>  (651) 
/opt/xchem-fragalysis-2/maxwin/BulkDock/SCRATCH/505732/C1941-P29

>  <fragmenstein_runtime>  (651) 
2.010354995727539

>  <fragmenstein_outcome>  (651) 
too moved

>  <fragmenstein_mode>  (651) 
expansion

>  <fragmenstein_error>  (651) 


$$$$
C1941-P97
     RDKit          3D

 39 40  0  0  0  0  0  0  0  0999 V2000
   14.9973   -5.0617   20.5474 C   0  0  0  0  0  0  0  0  0  0  0  0
   14.5266   -3.6355   20.3537 C   0  0  0  0  0  0  0  0  0  0  0  0
   15.2340   -2.8579   18.9067 S   0  0  0  0  0  0  0  0  0  0  0  0
   14.7864   -1.4828   18.8603 O   0  0  0  0  0  0  0  0  0  0  0  0
   16.6423   -3.1882   18.8453 O   0  0  0  0  0  0  0  0  0  0  0  0
   14.5022   -3.7634   17.6696 N   0  0  0  0  0  0  0  0  0  0  0  0
   13.6831   -3.0770   16.7189 C   0  0  0  0  0  0  0  0  0  0  0  0
   12.4516   -3.6413   16.4086 C   0  0  0  0  0  0  0  0  0  0  0  0
   11.6690   -3.0993   15.3905 C   0  0  0  0  0  0  0  0  0  0  0  0
   12.1352   -2.0196   14.6491 C   0  0  0  0  0  0  0  0  0  0  0  0
   13.3937   -1.4696   14.9072 C   0  0  0  0  0  0  0  0  0  0  0  0
   13.8860   -0.3243   14.0523 C   0  0  0  0  0  0  0  0  0  0  0  0
   14.9597   -0.8531   13.1667 C   0  0  0  0  0  0  0  0  0  0  0  0
   14.8872   -0.9194   11.8232 N   0  0  0  0  0  0  0  0  0  0  0  0
   16.1816   -1.2919   11.4452 O   0  0  0  0  0  0  0  0  0  0  0  0
   16.8925   -1.3985   12.6023 C   0  0  0  0  0  0  0  0  0  0  0  0
   18.3662   -1.5975   12.5540 C   0  0  0  0  0  0  0  0  0  0  0  0
   18.9534   -1.5370   11.1535 C   0  0  0  0  0  0  0  0  0  0  0  0
   19.0152   -0.5591   13.3773 N   0  0  0  0  0  0  0  0  0  0  0  0
   16.1806   -1.1763   13.6825 N   0  0  0  0  0  0  0  0  0  0  0  0
   14.1634   -2.0091   15.9560 C   0  0  0  0  0  0  0  0  0  0  0  0
   14.5052   -5.5090   21.4164 H   0  0  0  0  0  0  0  0  0  0  0  0
   14.7736   -5.6779   19.6726 H   0  0  0  0  0  0  0  0  0  0  0  0
   16.0785   -5.1006   20.7137 H   0  0  0  0  0  0  0  0  0  0  0  0
   13.4393   -3.5943   20.2503 H   0  0  0  0  0  0  0  0  0  0  0  0
   14.8137   -3.0213   21.2129 H   0  0  0  0  0  0  0  0  0  0  0  0
   15.2344   -4.3127   17.2104 H   0  0  0  0  0  0  0  0  0  0  0  0
   12.0996   -4.5152   16.9473 H   0  0  0  0  0  0  0  0  0  0  0  0
   10.7109   -3.5430   15.1391 H   0  0  0  0  0  0  0  0  0  0  0  0
   11.5200   -1.6255   13.8441 H   0  0  0  0  0  0  0  0  0  0  0  0
   14.2763    0.4736   14.6945 H   0  0  0  0  0  0  0  0  0  0  0  0
   13.0710    0.1093   13.4614 H   0  0  0  0  0  0  0  0  0  0  0  0
   18.5891   -2.5768   12.9936 H   0  0  0  0  0  0  0  0  0  0  0  0
   18.5196   -2.3145   10.5140 H   0  0  0  0  0  0  0  0  0  0  0  0
   18.7628   -0.5704   10.6718 H   0  0  0  0  0  0  0  0  0  0  0  0
   20.0377   -1.6954   11.1725 H   0  0  0  0  0  0  0  0  0  0  0  0
   18.5459   -0.5439   14.2864 H   0  0  0  0  0  0  0  0  0  0  0  0
   19.9788   -0.8317   13.5606 H   0  0  0  0  0  0  0  0  0  0  0  0
   15.1534   -1.6010   16.1528 H   0  0  0  0  0  0  0  0  0  0  0  0
  1  2  1  0
  2  3  1  0
  3  4  2  0
  3  5  2  0
  3  6  1  0
  6  7  1  0
  7  8  2  0
  8  9  1  0
  9 10  2  0
 10 11  1  0
 11 12  1  0
 12 13  1  0
 13 14  2  0
 14 15  1  0
 15 16  1  0
 16 17  1  0
 17 18  1  0
 17 19  1  0
 16 20  2  0
 11 21  2  0
 21  7  1  0
 20 13  1  0
  1 22  1  0
  1 23  1  0
  1 24  1  0
  2 25  1  0
  2 26  1  0
  6 27  1  0
  8 28  1  0
  9 29  1  0
 10 30  1  0
 12 31  1  0
 12 32  1  0
 17 33  1  0
 18 34  1  0
 18 35  1  0
 18 36  1  0
 19 37  1  0
 19 38  1  0
 21 39  1  0
M  END
>  <Energy>  (652) 
14.732263101459257

>  <compound_id>  (652) 
1941

>  <target_id>  (652) 
1

>  <reference_id>  (652) 
97

>  <inspiration_ids>  (652) 
[29, 97]

>  <energy_score>  (652) 
-40.18124703317852

>  <distance_score>  (652) 
1.2821164371733884

>  <path>  (652) 
/opt/xchem-fragalysis-2/maxwin/BulkDock/SCRATCH/505732/C1941-P97/C1941-P97.minimised.mol

>  <scratch_subdir>  (652) 
/opt/xchem-fragalysis-2/maxwin/BulkDock/SCRATCH/505732/C1941-P97

>  <fragmenstein_runtime>  (652) 
1.7936227321624756

>  <fragmenstein_outcome>  (652) 
too moved

>  <fragmenstein_mode>  (652) 
expansion

>  <fragmenstein_error>  (652) 


$$$$
C1942-P29
     RDKit          3D

 37 37  0  0  0  0  0  0  0  0999 V2000
   16.6766   -2.0548   11.7067 C   0  0  0  0  0  0  0  0  0  0  0  0
   15.3240   -1.7236   12.3154 C   0  0  0  0  0  0  0  0  0  0  0  0
   15.4286   -0.5628   13.3074 C   0  0  0  0  0  0  0  0  0  0  0  0
   14.0717   -0.1469   13.8865 C   0  0  0  0  0  0  0  0  0  0  0  0
   13.3591   -1.2308   14.6495 C   0  0  0  0  0  0  0  0  0  0  0  0
   12.0548   -1.5865   14.3210 C   0  0  0  0  0  0  0  0  0  0  0  0
   11.4269   -2.5664   15.0665 C   0  0  0  0  0  0  0  0  0  0  0  0
   11.9912   -3.1906   16.1213 N   0  0  0  0  0  0  0  0  0  0  0  0
   13.2684   -2.8763   16.4091 C   0  0  0  0  0  0  0  0  0  0  0  0
   13.9096   -3.6234   17.4210 N   0  0  0  0  0  0  0  0  0  0  0  0
   15.0594   -4.3099   17.0055 O   0  0  0  0  0  0  0  0  0  0  0  0
   16.1936   -3.7397   17.6615 C   0  0  0  0  0  0  0  0  0  0  0  0
   17.4511   -4.1994   16.9022 C   0  0  0  0  0  0  0  0  0  0  0  0
   18.7141   -3.8198   17.6685 C   0  0  0  0  0  0  0  0  0  0  0  0
   17.5135   -3.5965   15.5594 N   0  0  0  0  0  0  0  0  0  0  0  0
   13.9726   -1.8988   15.7096 C   0  0  0  0  0  0  0  0  0  0  0  0
   17.0827   -1.1970   11.1612 H   0  0  0  0  0  0  0  0  0  0  0  0
   16.5813   -2.8890   11.0046 H   0  0  0  0  0  0  0  0  0  0  0  0
   17.3954   -2.3432   12.4802 H   0  0  0  0  0  0  0  0  0  0  0  0
   14.6218   -1.4672   11.5142 H   0  0  0  0  0  0  0  0  0  0  0  0
   14.9353   -2.6194   12.8112 H   0  0  0  0  0  0  0  0  0  0  0  0
   15.8642    0.3067   12.7991 H   0  0  0  0  0  0  0  0  0  0  0  0
   16.1238   -0.8297   14.1122 H   0  0  0  0  0  0  0  0  0  0  0  0
   14.2143    0.7068   14.5610 H   0  0  0  0  0  0  0  0  0  0  0  0
   13.4366    0.2144   13.0674 H   0  0  0  0  0  0  0  0  0  0  0  0
   11.5260   -1.1094   13.5023 H   0  0  0  0  0  0  0  0  0  0  0  0
   10.4175   -2.8793   14.8186 H   0  0  0  0  0  0  0  0  0  0  0  0
   13.1877   -4.2858   17.7240 H   0  0  0  0  0  0  0  0  0  0  0  0
   16.2143   -4.1150   18.6914 H   0  0  0  0  0  0  0  0  0  0  0  0
   16.1391   -2.6448   17.6951 H   0  0  0  0  0  0  0  0  0  0  0  0
   17.4160   -5.2885   16.7772 H   0  0  0  0  0  0  0  0  0  0  0  0
   19.6123   -4.1627   17.1430 H   0  0  0  0  0  0  0  0  0  0  0  0
   18.7163   -4.2814   18.6618 H   0  0  0  0  0  0  0  0  0  0  0  0
   18.7928   -2.7348   17.8015 H   0  0  0  0  0  0  0  0  0  0  0  0
   18.2907   -4.0075   15.0452 H   0  0  0  0  0  0  0  0  0  0  0  0
   16.6753   -3.8974   15.0444 H   0  0  0  0  0  0  0  0  0  0  0  0
   14.9959   -1.6708   15.9846 H   0  0  0  0  0  0  0  0  0  0  0  0
  1  2  1  0
  2  3  1  0
  3  4  1  0
  4  5  1  0
  5  6  2  0
  6  7  1  0
  7  8  2  0
  8  9  1  0
  9 10  1  0
 10 11  1  0
 11 12  1  0
 12 13  1  0
 13 14  1  0
 13 15  1  0
  9 16  2  0
 16  5  1  0
  1 17  1  0
  1 18  1  0
  1 19  1  0
  2 20  1  0
  2 21  1  0
  3 22  1  0
  3 23  1  0
  4 24  1  0
  4 25  1  0
  6 26  1  0
  7 27  1  0
 10 28  1  0
 12 29  1  0
 12 30  1  0
 13 31  1  0
 14 32  1  0
 14 33  1  0
 14 34  1  0
 15 35  1  0
 15 36  1  0
 16 37  1  0
M  END
>  <Energy>  (653) 
26.230507405985747

>  <compound_id>  (653) 
1942

>  <target_id>  (653) 
1

>  <reference_id>  (653) 
29

>  <inspiration_ids>  (653) 
[29, 98]

>  <energy_score>  (653) 
-43.951959237544884

>  <distance_score>  (653) 
0.8305695103277047

>  <path>  (653) 
/opt/xchem-fragalysis-2/maxwin/BulkDock/SCRATCH/505732/C1942-P29/C1942-P29.minimised.mol

>  <scratch_subdir>  (653) 
/opt/xchem-fragalysis-2/maxwin/BulkDock/SCRATCH/505732/C1942-P29

>  <fragmenstein_runtime>  (653) 
1.4269540309906006

>  <fragmenstein_outcome>  (653) 
acceptable

>  <fragmenstein_mode>  (653) 
expansion

>  <fragmenstein_error>  (653) 


$$$$
C1942-P98
     RDKit          3D

 37 37  0  0  0  0  0  0  0  0999 V2000
   16.6028   -1.9030   11.7165 C   0  0  0  0  0  0  0  0  0  0  0  0
   15.2657   -1.5165   12.3281 C   0  0  0  0  0  0  0  0  0  0  0  0
   15.4350   -0.4454   13.4081 C   0  0  0  0  0  0  0  0  0  0  0  0
   14.1055   -0.0063   14.0362 C   0  0  0  0  0  0  0  0  0  0  0  0
   13.3640   -1.0999   14.7572 C   0  0  0  0  0  0  0  0  0  0  0  0
   12.0490   -1.4054   14.4236 C   0  0  0  0  0  0  0  0  0  0  0  0
   11.4146   -2.4350   15.0956 C   0  0  0  0  0  0  0  0  0  0  0  0
   11.9838   -3.1612   16.0796 N   0  0  0  0  0  0  0  0  0  0  0  0
   13.2658   -2.8830   16.3772 C   0  0  0  0  0  0  0  0  0  0  0  0
   13.9164   -3.7291   17.3001 N   0  0  0  0  0  0  0  0  0  0  0  0
   15.0629   -4.3669   16.8051 O   0  0  0  0  0  0  0  0  0  0  0  0
   16.1902   -3.9067   17.5546 C   0  0  0  0  0  0  0  0  0  0  0  0
   17.4655   -4.1966   16.7415 C   0  0  0  0  0  0  0  0  0  0  0  0
   17.6517   -5.6922   16.4885 C   0  0  0  0  0  0  0  0  0  0  0  0
   18.6592   -3.6710   17.4195 N   0  0  0  0  0  0  0  0  0  0  0  0
   13.9709   -1.8499   15.7645 C   0  0  0  0  0  0  0  0  0  0  0  0
   17.0865   -1.0384   11.2510 H   0  0  0  0  0  0  0  0  0  0  0  0
   16.4601   -2.6671   10.9464 H   0  0  0  0  0  0  0  0  0  0  0  0
   17.2786   -2.3091   12.4759 H   0  0  0  0  0  0  0  0  0  0  0  0
   14.6017   -1.1460   11.5391 H   0  0  0  0  0  0  0  0  0  0  0  0
   14.8001   -2.4137   12.7459 H   0  0  0  0  0  0  0  0  0  0  0  0
   15.9108    0.4378   12.9631 H   0  0  0  0  0  0  0  0  0  0  0  0
   16.1224   -0.8088   14.1813 H   0  0  0  0  0  0  0  0  0  0  0  0
   14.2972    0.8025   14.7526 H   0  0  0  0  0  0  0  0  0  0  0  0
   13.4706    0.4249   13.2517 H   0  0  0  0  0  0  0  0  0  0  0  0
   11.5206   -0.8686   13.6424 H   0  0  0  0  0  0  0  0  0  0  0  0
   10.3970   -2.7100   14.8368 H   0  0  0  0  0  0  0  0  0  0  0  0
   13.1919   -4.4102   17.5442 H   0  0  0  0  0  0  0  0  0  0  0  0
   16.2102   -4.4335   18.5163 H   0  0  0  0  0  0  0  0  0  0  0  0
   16.1159   -2.8299   17.7519 H   0  0  0  0  0  0  0  0  0  0  0  0
   17.3764   -3.7043   15.7649 H   0  0  0  0  0  0  0  0  0  0  0  0
   18.5776   -5.8864   15.9353 H   0  0  0  0  0  0  0  0  0  0  0  0
   16.8293   -6.0898   15.8865 H   0  0  0  0  0  0  0  0  0  0  0  0
   17.6927   -6.2565   17.4267 H   0  0  0  0  0  0  0  0  0  0  0  0
   19.4832   -3.8611   16.8497 H   0  0  0  0  0  0  0  0  0  0  0  0
   18.5916   -2.6567   17.4940 H   0  0  0  0  0  0  0  0  0  0  0  0
   14.9980   -1.6598   16.0512 H   0  0  0  0  0  0  0  0  0  0  0  0
  1  2  1  0
  2  3  1  0
  3  4  1  0
  4  5  1  0
  5  6  2  0
  6  7  1  0
  7  8  2  0
  8  9  1  0
  9 10  1  0
 10 11  1  0
 11 12  1  0
 12 13  1  0
 13 14  1  0
 13 15  1  0
  9 16  2  0
 16  5  1  0
  1 17  1  0
  1 18  1  0
  1 19  1  0
  2 20  1  0
  2 21  1  0
  3 22  1  0
  3 23  1  0
  4 24  1  0
  4 25  1  0
  6 26  1  0
  7 27  1  0
 10 28  1  0
 12 29  1  0
 12 30  1  0
 13 31  1  0
 14 32  1  0
 14 33  1  0
 14 34  1  0
 15 35  1  0
 15 36  1  0
 16 37  1  0
M  END
>  <Energy>  (654) 
27.500412845330853

>  <compound_id>  (654) 
1942

>  <target_id>  (654) 
1

>  <reference_id>  (654) 
98

>  <inspiration_ids>  (654) 
[29, 98]

>  <energy_score>  (654) 
-42.68205379819898

>  <distance_score>  (654) 
0.8287098151505005

>  <path>  (654) 
/opt/xchem-fragalysis-2/maxwin/BulkDock/SCRATCH/505732/C1942-P98/C1942-P98.minimised.mol

>  <scratch_subdir>  (654) 
/opt/xchem-fragalysis-2/maxwin/BulkDock/SCRATCH/505732/C1942-P98

>  <fragmenstein_runtime>  (654) 
1.4840426445007324

>  <fragmenstein_outcome>  (654) 
acceptable

>  <fragmenstein_mode>  (654) 
expansion

>  <fragmenstein_error>  (654) 


$$$$
C1944-P29
     RDKit          3D

 31 32  0  0  0  0  0  0  0  0999 V2000
   19.6827   -2.6055    8.9778 C   0  0  0  0  0  0  0  0  0  0  0  0
   19.5063   -3.1231   10.4008 C   0  0  0  0  0  0  0  0  0  0  0  0
   20.7343   -2.8876   11.1742 N   0  0  0  0  0  0  0  0  0  0  0  0
   18.3001   -2.5240   11.0627 C   0  0  0  0  0  0  0  0  0  0  0  0
   18.0641   -1.3294   11.5739 N   0  0  0  0  0  0  0  0  0  0  0  0
   16.7953   -1.4887   12.1163 C   0  0  0  0  0  0  0  0  0  0  0  0
   15.9835   -0.3922   12.7079 C   0  0  0  0  0  0  0  0  0  0  0  0
   15.8074   -0.4580   14.2325 C   0  0  0  0  0  0  0  0  0  0  0  0
   15.3699    0.7304   14.8800 C   0  0  0  0  0  0  0  0  0  0  0  0
   15.1603    0.7919   16.2611 C   0  0  0  0  0  0  0  0  0  0  0  0
   15.3860   -0.3362   17.0411 C   0  0  0  0  0  0  0  0  0  0  0  0
   15.7893   -1.5270   16.4245 C   0  0  0  0  0  0  0  0  0  0  0  0
   16.0265   -2.7336   17.2430 C   0  0  0  0  0  0  0  0  0  0  0  0
   15.5179   -3.8138   17.0172 O   0  0  0  0  0  0  0  0  0  0  0  0
   16.8950   -2.4956   18.2497 O   0  0  0  0  0  0  0  0  0  0  0  0
   15.9679   -1.6024   15.0348 C   0  0  0  0  0  0  0  0  0  0  0  0
   16.2563   -2.6865   11.8768 N   0  0  0  0  0  0  0  0  0  0  0  0
   17.2572   -3.3787   11.2199 O   0  0  0  0  0  0  0  0  0  0  0  0
   18.7934   -2.8178    8.3734 H   0  0  0  0  0  0  0  0  0  0  0  0
   20.5400   -3.0808    8.4884 H   0  0  0  0  0  0  0  0  0  0  0  0
   19.8403   -1.5206    8.9596 H   0  0  0  0  0  0  0  0  0  0  0  0
   19.3699   -4.2102   10.3440 H   0  0  0  0  0  0  0  0  0  0  0  0
   20.8450   -1.8782   11.2895 H   0  0  0  0  0  0  0  0  0  0  0  0
   20.5987   -3.2478   12.1193 H   0  0  0  0  0  0  0  0  0  0  0  0
   16.4633    0.5618   12.4551 H   0  0  0  0  0  0  0  0  0  0  0  0
   14.9853   -0.3868   12.2521 H   0  0  0  0  0  0  0  0  0  0  0  0
   15.1859    1.6279   14.2888 H   0  0  0  0  0  0  0  0  0  0  0  0
   14.8278    1.7219   16.7150 H   0  0  0  0  0  0  0  0  0  0  0  0
   15.2205   -0.2970   18.1150 H   0  0  0  0  0  0  0  0  0  0  0  0
   17.3176   -1.6172   18.2124 H   0  0  0  0  0  0  0  0  0  0  0  0
   16.2456   -2.5613   14.5965 H   0  0  0  0  0  0  0  0  0  0  0  0
  1  2  1  0
  2  3  1  0
  2  4  1  0
  4  5  2  0
  5  6  1  0
  6  7  1  0
  7  8  1  0
  8  9  2  0
  9 10  1  0
 10 11  2  0
 11 12  1  0
 12 13  1  0
 13 14  2  0
 13 15  1  0
 12 16  2  0
  6 17  2  0
 17 18  1  0
 18  4  1  0
 16  8  1  0
  1 19  1  0
  1 20  1  0
  1 21  1  0
  2 22  1  0
  3 23  1  0
  3 24  1  0
  7 25  1  0
  7 26  1  0
  9 27  1  0
 10 28  1  0
 11 29  1  0
 15 30  1  0
 16 31  1  0
M  END
>  <Energy>  (655) 
76.232431659477584

>  <compound_id>  (655) 
1944

>  <target_id>  (655) 
1

>  <reference_id>  (655) 
29

>  <inspiration_ids>  (655) 
[29, 106]

>  <energy_score>  (655) 
-21.151863811290653

>  <distance_score>  (655) 
2.622181997451753

>  <path>  (655) 
/opt/xchem-fragalysis-2/maxwin/BulkDock/SCRATCH/505732/C1944-P29/C1944-P29.minimised.mol

>  <scratch_subdir>  (655) 
/opt/xchem-fragalysis-2/maxwin/BulkDock/SCRATCH/505732/C1944-P29

>  <fragmenstein_runtime>  (655) 
5.2451722621917725

>  <fragmenstein_outcome>  (655) 
too moved

>  <fragmenstein_mode>  (655) 
expansion

>  <fragmenstein_error>  (655) 


$$$$
C1944-P106
     RDKit          3D

 31 32  0  0  0  0  0  0  0  0999 V2000
   19.7191   -2.6238    9.0626 C   0  0  0  0  0  0  0  0  0  0  0  0
   19.2623   -3.2526   10.3743 C   0  0  0  0  0  0  0  0  0  0  0  0
   20.4378   -3.7527   11.1104 N   0  0  0  0  0  0  0  0  0  0  0  0
   18.4145   -2.3078   11.1813 C   0  0  0  0  0  0  0  0  0  0  0  0
   17.1059   -2.1748   11.2131 N   0  0  0  0  0  0  0  0  0  0  0  0
   16.9165   -1.3024   12.2719 C   0  0  0  0  0  0  0  0  0  0  0  0
   15.5573   -0.8401   12.6737 C   0  0  0  0  0  0  0  0  0  0  0  0
   15.3713   -0.7623   14.1933 C   0  0  0  0  0  0  0  0  0  0  0  0
   15.0351    0.4579   14.8259 C   0  0  0  0  0  0  0  0  0  0  0  0
   14.7131    0.5074   16.1894 C   0  0  0  0  0  0  0  0  0  0  0  0
   14.7059   -0.6641   16.9473 C   0  0  0  0  0  0  0  0  0  0  0  0
   15.0219   -1.8877   16.3424 C   0  0  0  0  0  0  0  0  0  0  0  0
   14.9085   -3.1345   17.1431 C   0  0  0  0  0  0  0  0  0  0  0  0
   14.7225   -3.1984   18.3431 O   0  0  0  0  0  0  0  0  0  0  0  0
   14.9684   -4.2248   16.3609 O   0  0  0  0  0  0  0  0  0  0  0  0
   15.3738   -1.9262   14.9838 C   0  0  0  0  0  0  0  0  0  0  0  0
   18.0564   -0.8247   12.7921 N   0  0  0  0  0  0  0  0  0  0  0  0
   19.0512   -1.4988   12.0809 O   0  0  0  0  0  0  0  0  0  0  0  0
   18.8581   -2.2999    8.4665 H   0  0  0  0  0  0  0  0  0  0  0  0
   20.2910   -3.3380    8.4598 H   0  0  0  0  0  0  0  0  0  0  0  0
   20.3489   -1.7431    9.2353 H   0  0  0  0  0  0  0  0  0  0  0  0
   18.6416   -4.1239   10.1328 H   0  0  0  0  0  0  0  0  0  0  0  0
   21.0238   -2.9607   11.3770 H   0  0  0  0  0  0  0  0  0  0  0  0
   20.1219   -4.1655   11.9890 H   0  0  0  0  0  0  0  0  0  0  0  0
   15.3774    0.1457   12.2279 H   0  0  0  0  0  0  0  0  0  0  0  0
   14.7916   -1.5128   12.2680 H   0  0  0  0  0  0  0  0  0  0  0  0
   15.0063    1.3797   14.2472 H   0  0  0  0  0  0  0  0  0  0  0  0
   14.4582    1.4568   16.6539 H   0  0  0  0  0  0  0  0  0  0  0  0
   14.4387   -0.6282   18.0012 H   0  0  0  0  0  0  0  0  0  0  0  0
   14.7038   -5.0041   16.8954 H   0  0  0  0  0  0  0  0  0  0  0  0
   15.6199   -2.8779   14.5155 H   0  0  0  0  0  0  0  0  0  0  0  0
  1  2  1  0
  2  3  1  0
  2  4  1  0
  4  5  2  0
  5  6  1  0
  6  7  1  0
  7  8  1  0
  8  9  2  0
  9 10  1  0
 10 11  2  0
 11 12  1  0
 12 13  1  0
 13 14  2  0
 13 15  1  0
 12 16  2  0
  6 17  2  0
 17 18  1  0
 18  4  1  0
 16  8  1  0
  1 19  1  0
  1 20  1  0
  1 21  1  0
  2 22  1  0
  3 23  1  0
  3 24  1  0
  7 25  1  0
  7 26  1  0
  9 27  1  0
 10 28  1  0
 11 29  1  0
 15 30  1  0
 16 31  1  0
M  END
>  <Energy>  (656) 
67.217488761822423

>  <compound_id>  (656) 
1944

>  <target_id>  (656) 
1

>  <reference_id>  (656) 
106

>  <inspiration_ids>  (656) 
[29, 106]

>  <energy_score>  (656) 
-30.166806708946126

>  <distance_score>  (656) 
1.9992726757272827

>  <path>  (656) 
/opt/xchem-fragalysis-2/maxwin/BulkDock/SCRATCH/505732/C1944-P106/C1944-P106.minimised.mol

>  <scratch_subdir>  (656) 
/opt/xchem-fragalysis-2/maxwin/BulkDock/SCRATCH/505732/C1944-P106

>  <fragmenstein_runtime>  (656) 
4.915518283843994

>  <fragmenstein_outcome>  (656) 
too moved

>  <fragmenstein_mode>  (656) 
expansion

>  <fragmenstein_error>  (656) 


$$$$
C1867-P29
     RDKit          3D

 50 52  0  0  0  0  0  0  0  0999 V2000
   17.5275    0.7733   13.2906 C   0  0  0  0  0  0  0  0  0  0  0  0
   16.7790   -0.3363   14.0023 C   0  0  0  0  0  0  0  0  0  0  0  0
   15.7730    0.2181   15.0157 C   0  0  0  0  0  0  0  0  0  0  0  0
   14.8909   -0.8904   15.5354 C   0  0  0  0  0  0  0  0  0  0  0  0
   13.8667   -1.3079   14.6864 C   0  0  0  0  0  0  0  0  0  0  0  0
   13.0655   -2.3865   15.0279 C   0  0  0  0  0  0  0  0  0  0  0  0
   13.1592   -3.0321   16.2649 C   0  0  0  0  0  0  0  0  0  0  0  0
   12.4212   -4.1970   16.5783 N   0  0  0  0  0  0  0  0  0  0  0  0
   11.2705   -4.7302   15.9267 C   0  0  0  0  0  0  0  0  0  0  0  0
   11.0782   -6.5145   15.9463 C   0  0  0  0  0  0  0  0  0  0  0  0
    9.6661   -7.3562   15.2242 C   0  0  0  0  0  0  0  0  0  0  0  0
    8.4814   -6.4300   14.7925 C   0  0  0  0  0  0  0  0  0  0  0  0
    8.9288   -4.5616   14.7921 C   0  0  0  0  0  0  0  0  0  0  0  0
   10.2926   -3.9048   15.1647 C   0  0  0  0  0  0  0  0  0  0  0  0
   10.3115   -2.5355   15.0694 O   0  0  0  0  0  0  0  0  0  0  0  0
   14.2083   -2.6358   17.0986 C   0  0  0  0  0  0  0  0  0  0  0  0
   15.0901   -1.5812   16.7484 C   0  0  0  0  0  0  0  0  0  0  0  0
   16.2341   -1.2745   17.6831 C   0  0  0  0  0  0  0  0  0  0  0  0
   15.6719   -0.4765   18.7999 C   0  0  0  0  0  0  0  0  0  0  0  0
   15.5199    0.8557   18.7500 N   0  0  0  0  0  0  0  0  0  0  0  0
   15.1202    1.1830   20.0469 O   0  0  0  0  0  0  0  0  0  0  0  0
   15.0995    0.0145   20.7552 C   0  0  0  0  0  0  0  0  0  0  0  0
   14.8044    0.1240   22.2206 C   0  0  0  0  0  0  0  0  0  0  0  0
   15.9833    0.7639   22.9526 C   0  0  0  0  0  0  0  0  0  0  0  0
   14.5333   -1.1791   22.8478 N   0  0  0  0  0  0  0  0  0  0  0  0
   15.4016   -1.0382   20.0254 N   0  0  0  0  0  0  0  0  0  0  0  0
   16.8398    1.4168   12.7326 H   0  0  0  0  0  0  0  0  0  0  0  0
   18.2478    0.3526   12.5820 H   0  0  0  0  0  0  0  0  0  0  0  0
   18.0775    1.3953   14.0040 H   0  0  0  0  0  0  0  0  0  0  0  0
   17.4952   -0.9930   14.5112 H   0  0  0  0  0  0  0  0  0  0  0  0
   16.2750   -0.9500   13.2457 H   0  0  0  0  0  0  0  0  0  0  0  0
   16.2871    0.7416   15.8275 H   0  0  0  0  0  0  0  0  0  0  0  0
   15.1392    0.9789   14.5403 H   0  0  0  0  0  0  0  0  0  0  0  0
   13.7201   -0.8353   13.7178 H   0  0  0  0  0  0  0  0  0  0  0  0
   12.4023   -2.7511   14.2528 H   0  0  0  0  0  0  0  0  0  0  0  0
   12.3668   -4.3852   17.5803 H   0  0  0  0  0  0  0  0  0  0  0  0
   11.9901   -7.1055   16.2036 H   0  0  0  0  0  0  0  0  0  0  0  0
    9.5953   -8.4599   15.3470 H   0  0  0  0  0  0  0  0  0  0  0  0
    7.4712   -6.7172   15.1774 H   0  0  0  0  0  0  0  0  0  0  0  0
    8.1322   -3.7789   14.7695 H   0  0  0  0  0  0  0  0  0  0  0  0
    9.9574   -2.3044   14.1801 H   0  0  0  0  0  0  0  0  0  0  0  0
   14.3718   -3.1760   18.0309 H   0  0  0  0  0  0  0  0  0  0  0  0
   16.6652   -2.2107   18.0588 H   0  0  0  0  0  0  0  0  0  0  0  0
   17.0545   -0.7473   17.1885 H   0  0  0  0  0  0  0  0  0  0  0  0
   13.9201    0.7572   22.3570 H   0  0  0  0  0  0  0  0  0  0  0  0
   15.7724    0.8683   24.0230 H   0  0  0  0  0  0  0  0  0  0  0  0
   16.1928    1.7653   22.5593 H   0  0  0  0  0  0  0  0  0  0  0  0
   16.8989    0.1701   22.8434 H   0  0  0  0  0  0  0  0  0  0  0  0
   13.6316   -1.5269   22.4786 H   0  0  0  0  0  0  0  0  0  0  0  0
   15.2072   -1.8554   22.4828 H   0  0  0  0  0  0  0  0  0  0  0  0
  1  2  1  0
  2  3  1  0
  3  4  1  0
  4  5  2  0
  5  6  1  0
  6  7  2  0
  7  8  1  0
  8  9  1  0
  9 10  2  0
 10 11  1  0
 11 12  2  0
 12 13  1  0
 13 14  2  0
 14 15  1  0
  7 16  1  0
 16 17  2  0
 17 18  1  0
 18 19  1  0
 19 20  2  0
 20 21  1  0
 21 22  1  0
 22 23  1  0
 23 24  1  0
 23 25  1  0
 22 26  2  0
 17  4  1  0
 26 19  1  0
 14  9  1  0
  1 27  1  0
  1 28  1  0
  1 29  1  0
  2 30  1  0
  2 31  1  0
  3 32  1  0
  3 33  1  0
  5 34  1  0
  6 35  1  0
  8 36  1  0
 10 37  1  0
 11 38  1  0
 12 39  1  0
 13 40  1  0
 15 41  1  0
 16 42  1  0
 18 43  1  0
 18 44  1  0
 23 45  1  0
 24 46  1  0
 24 47  1  0
 24 48  1  0
 25 49  1  0
 25 50  1  0
M  END
>  <Energy>  (657) 
283.32562307771116

>  <compound_id>  (657) 
1867

>  <target_id>  (657) 
1

>  <reference_id>  (657) 
29

>  <inspiration_ids>  (657) 
[29, 114]

>  <energy_score>  (657) 
144.70676630824642

>  <distance_score>  (657) 
3.0787085932802616

>  <path>  (657) 
/opt/xchem-fragalysis-2/maxwin/BulkDock/SCRATCH/505732/C1867-P29/C1867-P29.minimised.mol

>  <scratch_subdir>  (657) 
/opt/xchem-fragalysis-2/maxwin/BulkDock/SCRATCH/505732/C1867-P29

>  <fragmenstein_runtime>  (657) 
11.185555696487427

>  <fragmenstein_outcome>  (657) 
too moved

>  <fragmenstein_mode>  (657) 
expansion

>  <fragmenstein_error>  (657) 


$$$$
C1867-P114
     RDKit          3D

 50 52  0  0  0  0  0  0  0  0999 V2000
   16.4940   -0.5623   12.4535 C   0  0  0  0  0  0  0  0  0  0  0  0
   16.7395    0.1899   13.7563 C   0  0  0  0  0  0  0  0  0  0  0  0
   15.4620    0.5276   14.5327 C   0  0  0  0  0  0  0  0  0  0  0  0
   14.7433   -0.6960   15.0498 C   0  0  0  0  0  0  0  0  0  0  0  0
   13.7620   -1.2500   14.2267 C   0  0  0  0  0  0  0  0  0  0  0  0
   13.1081   -2.4160   14.5964 C   0  0  0  0  0  0  0  0  0  0  0  0
   13.3664   -3.0598   15.8139 C   0  0  0  0  0  0  0  0  0  0  0  0
   12.6306   -4.1791   16.2516 N   0  0  0  0  0  0  0  0  0  0  0  0
   11.4054   -4.7199   15.7782 C   0  0  0  0  0  0  0  0  0  0  0  0
   11.2243   -6.3685   15.7497 C   0  0  0  0  0  0  0  0  0  0  0  0
    9.7488   -7.3100   15.2269 C   0  0  0  0  0  0  0  0  0  0  0  0
    8.3899   -6.2559   14.8447 C   0  0  0  0  0  0  0  0  0  0  0  0
    8.9432   -4.4305   14.9053 C   0  0  0  0  0  0  0  0  0  0  0  0
   10.3630   -3.8692   15.2167 C   0  0  0  0  0  0  0  0  0  0  0  0
   10.3981   -2.4915   15.3338 O   0  0  0  0  0  0  0  0  0  0  0  0
   14.3309   -2.4949   16.6471 C   0  0  0  0  0  0  0  0  0  0  0  0
   15.0419   -1.3285   16.2762 C   0  0  0  0  0  0  0  0  0  0  0  0
   16.1091   -0.8193   17.2157 C   0  0  0  0  0  0  0  0  0  0  0  0
   15.4153   -0.1042   18.3146 C   0  0  0  0  0  0  0  0  0  0  0  0
   15.0906    1.1954   18.2547 N   0  0  0  0  0  0  0  0  0  0  0  0
   14.6616    1.4783   19.5526 O   0  0  0  0  0  0  0  0  0  0  0  0
   14.7984    0.3223   20.2720 C   0  0  0  0  0  0  0  0  0  0  0  0
   14.4903    0.4160   21.7381 C   0  0  0  0  0  0  0  0  0  0  0  0
   15.5136    1.3051   22.4446 C   0  0  0  0  0  0  0  0  0  0  0  0
   14.4798   -0.8954   22.4069 N   0  0  0  0  0  0  0  0  0  0  0  0
   15.2103   -0.6908   19.5389 N   0  0  0  0  0  0  0  0  0  0  0  0
   15.7712   -0.0350   11.8230 H   0  0  0  0  0  0  0  0  0  0  0  0
   16.1269   -1.5765   12.6359 H   0  0  0  0  0  0  0  0  0  0  0  0
   17.4300   -0.6502   11.8921 H   0  0  0  0  0  0  0  0  0  0  0  0
   17.2523    1.1297   13.5177 H   0  0  0  0  0  0  0  0  0  0  0  0
   17.4262   -0.3944   14.3797 H   0  0  0  0  0  0  0  0  0  0  0  0
   15.7026    1.1979   15.3650 H   0  0  0  0  0  0  0  0  0  0  0  0
   14.7867    1.1112   13.8928 H   0  0  0  0  0  0  0  0  0  0  0  0
   13.5129   -0.7952   13.2701 H   0  0  0  0  0  0  0  0  0  0  0  0
   12.3875   -2.8222   13.8876 H   0  0  0  0  0  0  0  0  0  0  0  0
   13.1091   -4.7756   16.9133 H   0  0  0  0  0  0  0  0  0  0  0  0
   12.1209   -6.9125   16.0711 H   0  0  0  0  0  0  0  0  0  0  0  0
    9.7061   -8.4097   15.3182 H   0  0  0  0  0  0  0  0  0  0  0  0
    7.4469   -6.4656   15.4382 H   0  0  0  0  0  0  0  0  0  0  0  0
    8.2664   -3.5408   14.9242 H   0  0  0  0  0  0  0  0  0  0  0  0
   11.1855   -2.2922   15.8683 H   0  0  0  0  0  0  0  0  0  0  0  0
   14.5387   -2.9567   17.6121 H   0  0  0  0  0  0  0  0  0  0  0  0
   16.6861   -1.6646   17.6105 H   0  0  0  0  0  0  0  0  0  0  0  0
   16.8348   -0.1690   16.7199 H   0  0  0  0  0  0  0  0  0  0  0  0
   13.4970    0.8651   21.8538 H   0  0  0  0  0  0  0  0  0  0  0  0
   15.2824    1.4030   23.5114 H   0  0  0  0  0  0  0  0  0  0  0  0
   15.5201    2.3142   22.0169 H   0  0  0  0  0  0  0  0  0  0  0  0
   16.5297    0.9028   22.3529 H   0  0  0  0  0  0  0  0  0  0  0  0
   14.1702   -0.7747   23.3692 H   0  0  0  0  0  0  0  0  0  0  0  0
   13.7226   -1.4506   21.9819 H   0  0  0  0  0  0  0  0  0  0  0  0
  1  2  1  0
  2  3  1  0
  3  4  1  0
  4  5  2  0
  5  6  1  0
  6  7  2  0
  7  8  1  0
  8  9  1  0
  9 10  2  0
 10 11  1  0
 11 12  2  0
 12 13  1  0
 13 14  2  0
 14 15  1  0
  7 16  1  0
 16 17  2  0
 17 18  1  0
 18 19  1  0
 19 20  2  0
 20 21  1  0
 21 22  1  0
 22 23  1  0
 23 24  1  0
 23 25  1  0
 22 26  2  0
 17  4  1  0
 26 19  1  0
 14  9  1  0
  1 27  1  0
  1 28  1  0
  1 29  1  0
  2 30  1  0
  2 31  1  0
  3 32  1  0
  3 33  1  0
  5 34  1  0
  6 35  1  0
  8 36  1  0
 10 37  1  0
 11 38  1  0
 12 39  1  0
 13 40  1  0
 15 41  1  0
 16 42  1  0
 18 43  1  0
 18 44  1  0
 23 45  1  0
 24 46  1  0
 24 47  1  0
 24 48  1  0
 25 49  1  0
 25 50  1  0
M  END
>  <Energy>  (658) 
290.1940719218295

>  <compound_id>  (658) 
1867

>  <target_id>  (658) 
1

>  <reference_id>  (658) 
114

>  <inspiration_ids>  (658) 
[29, 114]

>  <energy_score>  (658) 
151.57521515235953

>  <distance_score>  (658) 
2.5786077061551436

>  <path>  (658) 
/opt/xchem-fragalysis-2/maxwin/BulkDock/SCRATCH/505732/C1867-P114/C1867-P114.minimised.mol

>  <scratch_subdir>  (658) 
/opt/xchem-fragalysis-2/maxwin/BulkDock/SCRATCH/505732/C1867-P114

>  <fragmenstein_runtime>  (658) 
11.976644277572632

>  <fragmenstein_outcome>  (658) 
too moved

>  <fragmenstein_mode>  (658) 
expansion

>  <fragmenstein_error>  (658) 


$$$$
C1949-P29
     RDKit          3D

 47 49  0  0  0  0  0  0  0  0999 V2000
   17.5162   -3.9655   15.8720 C   0  0  0  0  0  0  0  0  0  0  0  0
   18.0415   -3.0685   17.0020 C   0  0  0  0  0  0  0  0  0  0  0  0
   19.4467   -2.7928   16.7085 N   0  0  0  0  0  0  0  0  0  0  0  0
   17.1737   -1.8472   17.1218 C   0  0  0  0  0  0  0  0  0  0  0  0
   15.8675   -1.8473   17.0902 N   0  0  0  0  0  0  0  0  0  0  0  0
   15.6738   -0.8782   16.1359 C   0  0  0  0  0  0  0  0  0  0  0  0
   15.0680   -1.3636   14.8512 C   0  0  0  0  0  0  0  0  0  0  0  0
   13.6215   -1.6590   15.1357 C   0  0  0  0  0  0  0  0  0  0  0  0
   12.6027   -1.0143   14.4529 C   0  0  0  0  0  0  0  0  0  0  0  0
   11.3231   -1.5285   14.5144 C   0  0  0  0  0  0  0  0  0  0  0  0
   11.0580   -2.6970   15.2100 C   0  0  0  0  0  0  0  0  0  0  0  0
   12.0283   -3.2672   16.0089 C   0  0  0  0  0  0  0  0  0  0  0  0
   13.2993   -2.7318   15.9908 C   0  0  0  0  0  0  0  0  0  0  0  0
   15.4232   -0.6942   13.5209 C   0  0  0  0  0  0  0  0  0  0  0  0
   15.3317    0.6557   13.5722 F   0  0  0  0  0  0  0  0  0  0  0  0
   16.7662   -1.0515   13.1717 O   0  0  0  0  0  0  0  0  0  0  0  0
   17.1478   -1.1619   11.8702 C   0  0  0  0  0  0  0  0  0  0  0  0
   16.4203   -0.6495   10.7966 C   0  0  0  0  0  0  0  0  0  0  0  0
   16.8621   -0.8358    9.4802 C   0  0  0  0  0  0  0  0  0  0  0  0
   18.0347   -1.5357    9.2141 C   0  0  0  0  0  0  0  0  0  0  0  0
   18.7891   -2.0256   10.2667 C   0  0  0  0  0  0  0  0  0  0  0  0
   18.3586   -1.8114   11.5870 C   0  0  0  0  0  0  0  0  0  0  0  0
   19.4189   -2.3990   12.8577 S   0  0  0  0  0  0  0  0  0  0  0  0
   20.9684   -2.0662   12.2779 N   0  0  0  0  0  0  0  0  0  0  0  0
   19.3264   -1.5891   14.0510 O   0  0  0  0  0  0  0  0  0  0  0  0
   19.3248   -3.8414   12.8854 O   0  0  0  0  0  0  0  0  0  0  0  0
   16.5974    0.0936   16.2117 N   0  0  0  0  0  0  0  0  0  0  0  0
   17.6761   -0.5988   16.8196 O   0  0  0  0  0  0  0  0  0  0  0  0
   17.4826   -3.4429   14.9132 H   0  0  0  0  0  0  0  0  0  0  0  0
   16.5020   -4.3156   16.0954 H   0  0  0  0  0  0  0  0  0  0  0  0
   18.1437   -4.8563   15.7525 H   0  0  0  0  0  0  0  0  0  0  0  0
   17.9883   -3.6204   17.9470 H   0  0  0  0  0  0  0  0  0  0  0  0
   19.4871   -2.2793   15.8163 H   0  0  0  0  0  0  0  0  0  0  0  0
   19.8057   -2.1359   17.4000 H   0  0  0  0  0  0  0  0  0  0  0  0
   15.4902   -2.3708   14.7051 H   0  0  0  0  0  0  0  0  0  0  0  0
   12.7788   -0.1277   13.8484 H   0  0  0  0  0  0  0  0  0  0  0  0
   10.5348   -1.0053   13.9875 H   0  0  0  0  0  0  0  0  0  0  0  0
   10.0863   -3.1551   15.0918 H   0  0  0  0  0  0  0  0  0  0  0  0
   11.8236   -4.1642   16.5862 H   0  0  0  0  0  0  0  0  0  0  0  0
   14.0638   -3.2517   16.5662 H   0  0  0  0  0  0  0  0  0  0  0  0
   14.7344   -1.0580   12.7495 H   0  0  0  0  0  0  0  0  0  0  0  0
   15.5141   -0.0710   10.9522 H   0  0  0  0  0  0  0  0  0  0  0  0
   16.2824   -0.4193    8.6596 H   0  0  0  0  0  0  0  0  0  0  0  0
   18.3683   -1.6833    8.1902 H   0  0  0  0  0  0  0  0  0  0  0  0
   19.7107   -2.5626   10.0559 H   0  0  0  0  0  0  0  0  0  0  0  0
   21.4095   -1.3797   12.8922 H   0  0  0  0  0  0  0  0  0  0  0  0
   21.4918   -2.9397   12.2045 H   0  0  0  0  0  0  0  0  0  0  0  0
  1  2  1  0
  2  3  1  0
  2  4  1  0
  4  5  2  0
  5  6  1  0
  6  7  1  0
  7  8  1  0
  8  9  2  0
  9 10  1  0
 10 11  2  0
 11 12  1  0
 12 13  2  0
  7 14  1  0
 14 15  1  0
 14 16  1  0
 16 17  1  0
 17 18  2  0
 18 19  1  0
 19 20  2  0
 20 21  1  0
 21 22  2  0
 22 23  1  0
 23 24  1  0
 23 25  2  0
 23 26  2  0
  6 27  2  0
 27 28  1  0
 28  4  1  0
 13  8  1  0
 22 17  1  0
  1 29  1  0
  1 30  1  0
  1 31  1  0
  2 32  1  0
  3 33  1  0
  3 34  1  0
  7 35  1  0
  9 36  1  0
 10 37  1  0
 11 38  1  0
 12 39  1  0
 13 40  1  0
 14 41  1  0
 18 42  1  0
 19 43  1  0
 20 44  1  0
 21 45  1  0
 24 46  1  0
 24 47  1  0
M  END
>  <Energy>  (659) 
70.83512088879786

>  <compound_id>  (659) 
1949

>  <target_id>  (659) 
1

>  <reference_id>  (659) 
29

>  <inspiration_ids>  (659) 
[29, 124]

>  <energy_score>  (659) 
-5.503400795660866

>  <distance_score>  (659) 
1.9207593305027948

>  <path>  (659) 
/opt/xchem-fragalysis-2/maxwin/BulkDock/SCRATCH/505732/C1949-P29/C1949-P29.minimised.mol

>  <scratch_subdir>  (659) 
/opt/xchem-fragalysis-2/maxwin/BulkDock/SCRATCH/505732/C1949-P29

>  <fragmenstein_runtime>  (659) 
3.581749439239502

>  <fragmenstein_outcome>  (659) 
too moved

>  <fragmenstein_mode>  (659) 
expansion

>  <fragmenstein_error>  (659) 


$$$$
C1949-P124
     RDKit          3D

 47 49  0  0  0  0  0  0  0  0999 V2000
   17.5238   -3.9826   16.3622 C   0  0  0  0  0  0  0  0  0  0  0  0
   18.1245   -2.8798   17.2490 C   0  0  0  0  0  0  0  0  0  0  0  0
   19.4503   -2.5755   16.7195 N   0  0  0  0  0  0  0  0  0  0  0  0
   17.2045   -1.6882   17.3219 C   0  0  0  0  0  0  0  0  0  0  0  0
   15.8975   -1.7237   17.2637 N   0  0  0  0  0  0  0  0  0  0  0  0
   15.7027   -0.7648   16.2938 C   0  0  0  0  0  0  0  0  0  0  0  0
   15.2795   -1.3121   14.9511 C   0  0  0  0  0  0  0  0  0  0  0  0
   13.8782   -1.8544   15.1512 C   0  0  0  0  0  0  0  0  0  0  0  0
   12.7630   -1.3174   14.5255 C   0  0  0  0  0  0  0  0  0  0  0  0
   11.5317   -1.9330   14.6896 C   0  0  0  0  0  0  0  0  0  0  0  0
   11.3925   -3.0833   15.4492 C   0  0  0  0  0  0  0  0  0  0  0  0
   12.4669   -3.5910   16.1455 C   0  0  0  0  0  0  0  0  0  0  0  0
   13.6985   -2.9874   15.9815 C   0  0  0  0  0  0  0  0  0  0  0  0
   15.6269   -0.5938   13.6365 C   0  0  0  0  0  0  0  0  0  0  0  0
   16.6966    0.2281   13.7541 F   0  0  0  0  0  0  0  0  0  0  0  0
   15.9826   -1.6576   12.7028 O   0  0  0  0  0  0  0  0  0  0  0  0
   16.7533   -1.2804   11.6439 C   0  0  0  0  0  0  0  0  0  0  0  0
   16.1088   -0.7306   10.5372 C   0  0  0  0  0  0  0  0  0  0  0  0
   16.8171   -0.4910    9.3564 C   0  0  0  0  0  0  0  0  0  0  0  0
   18.1656   -0.8255    9.2584 C   0  0  0  0  0  0  0  0  0  0  0  0
   18.8170   -1.3830   10.3489 C   0  0  0  0  0  0  0  0  0  0  0  0
   18.1124   -1.6017   11.5440 C   0  0  0  0  0  0  0  0  0  0  0  0
   19.0270   -2.2893   12.8763 S   0  0  0  0  0  0  0  0  0  0  0  0
   18.4419   -3.8566   12.9478 N   0  0  0  0  0  0  0  0  0  0  0  0
   18.6651   -1.6456   14.1152 O   0  0  0  0  0  0  0  0  0  0  0  0
   20.4099   -2.4383   12.4791 O   0  0  0  0  0  0  0  0  0  0  0  0
   16.5617    0.2560   16.4463 N   0  0  0  0  0  0  0  0  0  0  0  0
   17.6673   -0.4146   17.0484 O   0  0  0  0  0  0  0  0  0  0  0  0
   17.3378   -3.6511   15.3415 H   0  0  0  0  0  0  0  0  0  0  0  0
   16.5779   -4.3407   16.7797 H   0  0  0  0  0  0  0  0  0  0  0  0
   18.1897   -4.8526   16.3133 H   0  0  0  0  0  0  0  0  0  0  0  0
   18.2432   -3.2733   18.2646 H   0  0  0  0  0  0  0  0  0  0  0  0
   19.3287   -2.0815   15.8225 H   0  0  0  0  0  0  0  0  0  0  0  0
   19.9477   -3.4314   16.4856 H   0  0  0  0  0  0  0  0  0  0  0  0
   15.8679   -2.2355   14.8585 H   0  0  0  0  0  0  0  0  0  0  0  0
   12.8040   -0.4184   13.9181 H   0  0  0  0  0  0  0  0  0  0  0  0
   10.6651   -1.4842   14.2273 H   0  0  0  0  0  0  0  0  0  0  0  0
   10.4395   -3.5887   15.4653 H   0  0  0  0  0  0  0  0  0  0  0  0
   12.3605   -4.4836   16.7540 H   0  0  0  0  0  0  0  0  0  0  0  0
   14.5398   -3.4544   16.4841 H   0  0  0  0  0  0  0  0  0  0  0  0
   14.8026   -0.0107   13.2190 H   0  0  0  0  0  0  0  0  0  0  0  0
   15.0452   -0.5095   10.5769 H   0  0  0  0  0  0  0  0  0  0  0  0
   16.3054   -0.0445    8.5060 H   0  0  0  0  0  0  0  0  0  0  0  0
   18.7117   -0.6333    8.3373 H   0  0  0  0  0  0  0  0  0  0  0  0
   19.8750   -1.6245   10.2629 H   0  0  0  0  0  0  0  0  0  0  0  0
   19.0733   -4.4977   12.4717 H   0  0  0  0  0  0  0  0  0  0  0  0
   17.4473   -3.9396   12.7114 H   0  0  0  0  0  0  0  0  0  0  0  0
  1  2  1  0
  2  3  1  0
  2  4  1  0
  4  5  2  0
  5  6  1  0
  6  7  1  0
  7  8  1  0
  8  9  2  0
  9 10  1  0
 10 11  2  0
 11 12  1  0
 12 13  2  0
  7 14  1  0
 14 15  1  0
 14 16  1  0
 16 17  1  0
 17 18  2  0
 18 19  1  0
 19 20  2  0
 20 21  1  0
 21 22  2  0
 22 23  1  0
 23 24  1  0
 23 25  2  0
 23 26  2  0
  6 27  2  0
 27 28  1  0
 28  4  1  0
 13  8  1  0
 22 17  1  0
  1 29  1  0
  1 30  1  0
  1 31  1  0
  2 32  1  0
  3 33  1  0
  3 34  1  0
  7 35  1  0
  9 36  1  0
 10 37  1  0
 11 38  1  0
 12 39  1  0
 13 40  1  0
 14 41  1  0
 18 42  1  0
 19 43  1  0
 20 44  1  0
 21 45  1  0
 24 46  1  0
 24 47  1  0
M  END
>  <Energy>  (660) 
84.07184216682694

>  <compound_id>  (660) 
1949

>  <target_id>  (660) 
1

>  <reference_id>  (660) 
124

>  <inspiration_ids>  (660) 
[29, 124]

>  <energy_score>  (660) 
7.73332048236901

>  <distance_score>  (660) 
1.8173335329981557

>  <path>  (660) 
/opt/xchem-fragalysis-2/maxwin/BulkDock/SCRATCH/505732/C1949-P124/C1949-P124.minimised.mol

>  <scratch_subdir>  (660) 
/opt/xchem-fragalysis-2/maxwin/BulkDock/SCRATCH/505732/C1949-P124

>  <fragmenstein_runtime>  (660) 
3.419102430343628

>  <fragmenstein_outcome>  (660) 
too moved

>  <fragmenstein_mode>  (660) 
expansion

>  <fragmenstein_error>  (660) 


$$$$
C1952-P29
     RDKit          3D

 46 48  0  0  0  0  0  0  0  0999 V2000
   18.9291   -4.6345   14.3890 C   0  0  0  0  0  0  0  0  0  0  0  0
   19.0044   -3.5342   13.3256 C   0  0  0  0  0  0  0  0  0  0  0  0
   17.9077   -3.6500   12.3637 N   0  0  0  0  0  0  0  0  0  0  0  0
   18.9957   -2.2266   14.0054 C   0  0  0  0  0  0  0  0  0  0  0  0
   18.6511   -1.9687   15.2407 N   0  0  0  0  0  0  0  0  0  0  0  0
   19.0347   -0.6719   15.3719 C   0  0  0  0  0  0  0  0  0  0  0  0
   19.0034    0.0043   16.6895 C   0  0  0  0  0  0  0  0  0  0  0  0
   19.3307   -1.0197   17.7602 C   0  0  0  0  0  0  0  0  0  0  0  0
   20.6518   -1.4718   17.9257 C   0  0  0  0  0  0  0  0  0  0  0  0
   20.9890   -2.3876   18.9269 C   0  0  0  0  0  0  0  0  0  0  0  0
   20.0118   -2.8666   19.7941 C   0  0  0  0  0  0  0  0  0  0  0  0
   18.6970   -2.4324   19.6549 C   0  0  0  0  0  0  0  0  0  0  0  0
   18.3647   -1.5222   18.6415 C   0  0  0  0  0  0  0  0  0  0  0  0
   16.9454   -1.1293   18.5446 C   0  0  0  0  0  0  0  0  0  0  0  0
   16.4991   -0.3891   19.3212 O   0  0  0  0  0  0  0  0  0  0  0  0
   16.2720   -1.8956   17.4018 N   0  0  0  0  0  0  0  0  0  0  0  0
   14.8881   -1.9886   17.0289 C   0  0  0  0  0  0  0  0  0  0  0  0
   14.4124   -3.4285   17.0943 C   0  0  0  0  0  0  0  0  0  0  0  0
   12.9271   -3.5297   16.7949 C   0  0  0  0  0  0  0  0  0  0  0  0
   12.3500   -2.5609   15.7812 C   0  0  0  0  0  0  0  0  0  0  0  0
   11.1650   -2.5948   15.4595 O   0  0  0  0  0  0  0  0  0  0  0  0
   13.1597   -1.5688   15.3114 N   0  0  0  0  0  0  0  0  0  0  0  0
   14.5608   -1.4123   15.6508 C   0  0  0  0  0  0  0  0  0  0  0  0
   19.4409   -0.0920   14.2264 N   0  0  0  0  0  0  0  0  0  0  0  0
   19.4276   -1.1425   13.3078 O   0  0  0  0  0  0  0  0  0  0  0  0
   19.7812   -4.5703   15.0769 H   0  0  0  0  0  0  0  0  0  0  0  0
   18.0173   -4.5716   14.9944 H   0  0  0  0  0  0  0  0  0  0  0  0
   18.9651   -5.6266   13.9255 H   0  0  0  0  0  0  0  0  0  0  0  0
   19.9481   -3.6476   12.7798 H   0  0  0  0  0  0  0  0  0  0  0  0
   17.8939   -2.8346   11.7512 H   0  0  0  0  0  0  0  0  0  0  0  0
   17.0123   -3.6475   12.8656 H   0  0  0  0  0  0  0  0  0  0  0  0
   19.7444    0.8118   16.7316 H   0  0  0  0  0  0  0  0  0  0  0  0
   18.0264    0.4712   16.8476 H   0  0  0  0  0  0  0  0  0  0  0  0
   21.4398   -1.1049   17.2689 H   0  0  0  0  0  0  0  0  0  0  0  0
   22.0189   -2.7206   19.0330 H   0  0  0  0  0  0  0  0  0  0  0  0
   20.2730   -3.5729   20.5779 H   0  0  0  0  0  0  0  0  0  0  0  0
   17.9288   -2.7990   20.3327 H   0  0  0  0  0  0  0  0  0  0  0  0
   16.9806   -2.3954   16.8631 H   0  0  0  0  0  0  0  0  0  0  0  0
   14.3554   -1.4204   17.7956 H   0  0  0  0  0  0  0  0  0  0  0  0
   15.0023   -4.0388   16.4041 H   0  0  0  0  0  0  0  0  0  0  0  0
   14.6089   -3.8508   18.0886 H   0  0  0  0  0  0  0  0  0  0  0  0
   12.4147   -3.3397   17.7286 H   0  0  0  0  0  0  0  0  0  0  0  0
   12.6653   -4.5492   16.5161 H   0  0  0  0  0  0  0  0  0  0  0  0
   12.7337   -0.9534   14.6242 H   0  0  0  0  0  0  0  0  0  0  0  0
   15.1450   -1.9090   14.8674 H   0  0  0  0  0  0  0  0  0  0  0  0
   14.7961   -0.3435   15.6099 H   0  0  0  0  0  0  0  0  0  0  0  0
  1  2  1  0
  2  3  1  0
  2  4  1  0
  4  5  2  0
  5  6  1  0
  6  7  1  0
  7  8  1  0
  8  9  2  0
  9 10  1  0
 10 11  2  0
 11 12  1  0
 12 13  2  0
 13 14  1  0
 14 15  2  0
 14 16  1  0
 16 17  1  0
 17 18  1  0
 18 19  1  0
 19 20  1  0
 20 21  2  0
 20 22  1  0
 22 23  1  0
  6 24  2  0
 24 25  1  0
 25  4  1  0
 13  8  1  0
 23 17  1  0
  1 26  1  0
  1 27  1  0
  1 28  1  0
  2 29  1  0
  3 30  1  0
  3 31  1  0
  7 32  1  0
  7 33  1  0
  9 34  1  0
 10 35  1  0
 11 36  1  0
 12 37  1  0
 16 38  1  0
 17 39  1  0
 18 40  1  0
 18 41  1  0
 19 42  1  0
 19 43  1  0
 22 44  1  0
 23 45  1  0
 23 46  1  0
M  END
>  <Energy>  (661) 
72.200826408085163

>  <compound_id>  (661) 
1952

>  <target_id>  (661) 
1

>  <reference_id>  (661) 
29

>  <inspiration_ids>  (661) 
[29, 191]

>  <energy_score>  (661) 
-55.07931845898733

>  <distance_score>  (661) 
1.8711974511256473

>  <path>  (661) 
/opt/xchem-fragalysis-2/maxwin/BulkDock/SCRATCH/505732/C1952-P29/C1952-P29.minimised.mol

>  <scratch_subdir>  (661) 
/opt/xchem-fragalysis-2/maxwin/BulkDock/SCRATCH/505732/C1952-P29

>  <fragmenstein_runtime>  (661) 
38.336379528045654

>  <fragmenstein_outcome>  (661) 
too moved

>  <fragmenstein_mode>  (661) 
expansion

>  <fragmenstein_error>  (661) 


$$$$
C1952-P191
     RDKit          3D

 46 48  0  0  0  0  0  0  0  0999 V2000
   16.7025   -1.0030   13.3135 C   0  0  0  0  0  0  0  0  0  0  0  0
   17.2405   -2.4199   13.3162 C   0  0  0  0  0  0  0  0  0  0  0  0
   17.3047   -2.9454   11.9664 N   0  0  0  0  0  0  0  0  0  0  0  0
   18.5107   -2.4076   14.0531 C   0  0  0  0  0  0  0  0  0  0  0  0
   18.6087   -2.5635   15.3449 N   0  0  0  0  0  0  0  0  0  0  0  0
   19.6977   -1.8026   15.6285 C   0  0  0  0  0  0  0  0  0  0  0  0
   19.9179   -1.2705   16.9942 C   0  0  0  0  0  0  0  0  0  0  0  0
   19.3880   -2.2632   18.0104 C   0  0  0  0  0  0  0  0  0  0  0  0
   20.3292   -3.1152   18.6249 C   0  0  0  0  0  0  0  0  0  0  0  0
   19.9543   -4.0425   19.5976 C   0  0  0  0  0  0  0  0  0  0  0  0
   18.6280   -4.1288   19.9954 C   0  0  0  0  0  0  0  0  0  0  0  0
   17.6767   -3.2985   19.4052 C   0  0  0  0  0  0  0  0  0  0  0  0
   18.0333   -2.3837   18.3915 C   0  0  0  0  0  0  0  0  0  0  0  0
   16.9269   -1.5146   17.8464 C   0  0  0  0  0  0  0  0  0  0  0  0
   17.0961   -0.3644   17.7633 O   0  0  0  0  0  0  0  0  0  0  0  0
   15.6644   -2.3631   17.5742 N   0  0  0  0  0  0  0  0  0  0  0  0
   14.3137   -1.9593   17.2330 C   0  0  0  0  0  0  0  0  0  0  0  0
   13.3881   -3.1819   17.0672 C   0  0  0  0  0  0  0  0  0  0  0  0
   12.2901   -3.0011   16.0150 C   0  0  0  0  0  0  0  0  0  0  0  0
   11.7947   -1.5761   15.9553 C   0  0  0  0  0  0  0  0  0  0  0  0
   10.6135   -1.2569   16.0256 O   0  0  0  0  0  0  0  0  0  0  0  0
   12.7948   -0.6458   15.8388 N   0  0  0  0  0  0  0  0  0  0  0  0
   14.1863   -1.0122   16.0332 C   0  0  0  0  0  0  0  0  0  0  0  0
   20.3814   -1.3841   14.5437 N   0  0  0  0  0  0  0  0  0  0  0  0
   19.5750   -1.7862   13.4779 O   0  0  0  0  0  0  0  0  0  0  0  0
   16.6426   -0.5871   14.3260 H   0  0  0  0  0  0  0  0  0  0  0  0
   17.3345   -0.3256   12.7255 H   0  0  0  0  0  0  0  0  0  0  0  0
   15.6958   -0.9673   12.8806 H   0  0  0  0  0  0  0  0  0  0  0  0
   16.5146   -2.9999   13.8916 H   0  0  0  0  0  0  0  0  0  0  0  0
   17.6120   -3.9204   11.9442 H   0  0  0  0  0  0  0  0  0  0  0  0
   17.9975   -2.4336   11.4180 H   0  0  0  0  0  0  0  0  0  0  0  0
   19.4380   -0.2948   17.1122 H   0  0  0  0  0  0  0  0  0  0  0  0
   20.9887   -1.0963   17.1590 H   0  0  0  0  0  0  0  0  0  0  0  0
   21.3810   -3.0610   18.3446 H   0  0  0  0  0  0  0  0  0  0  0  0
   20.7038   -4.6852   20.0534 H   0  0  0  0  0  0  0  0  0  0  0  0
   18.3353   -4.8303   20.7725 H   0  0  0  0  0  0  0  0  0  0  0  0
   16.6527   -3.3511   19.7705 H   0  0  0  0  0  0  0  0  0  0  0  0
   15.8915   -3.3481   17.6666 H   0  0  0  0  0  0  0  0  0  0  0  0
   13.9703   -1.3971   18.1109 H   0  0  0  0  0  0  0  0  0  0  0  0
   13.9634   -4.0804   16.8164 H   0  0  0  0  0  0  0  0  0  0  0  0
   12.9308   -3.3988   18.0398 H   0  0  0  0  0  0  0  0  0  0  0  0
   11.4574   -3.6780   16.2194 H   0  0  0  0  0  0  0  0  0  0  0  0
   12.6680   -3.2519   15.0175 H   0  0  0  0  0  0  0  0  0  0  0  0
   12.5146    0.3283   15.8110 H   0  0  0  0  0  0  0  0  0  0  0  0
   14.5367   -1.4983   15.1179 H   0  0  0  0  0  0  0  0  0  0  0  0
   14.7606   -0.0925   16.1795 H   0  0  0  0  0  0  0  0  0  0  0  0
  1  2  1  0
  2  3  1  0
  2  4  1  0
  4  5  2  0
  5  6  1  0
  6  7  1  0
  7  8  1  0
  8  9  2  0
  9 10  1  0
 10 11  2  0
 11 12  1  0
 12 13  2  0
 13 14  1  0
 14 15  2  0
 14 16  1  0
 16 17  1  0
 17 18  1  0
 18 19  1  0
 19 20  1  0
 20 21  2  0
 20 22  1  0
 22 23  1  0
  6 24  2  0
 24 25  1  0
 25  4  1  0
 13  8  1  0
 23 17  1  0
  1 26  1  0
  1 27  1  0
  1 28  1  0
  2 29  1  0
  3 30  1  0
  3 31  1  0
  7 32  1  0
  7 33  1  0
  9 34  1  0
 10 35  1  0
 11 36  1  0
 12 37  1  0
 16 38  1  0
 17 39  1  0
 18 40  1  0
 18 41  1  0
 19 42  1  0
 19 43  1  0
 22 44  1  0
 23 45  1  0
 23 46  1  0
M  END
>  <Energy>  (662) 
84.236747809031129

>  <compound_id>  (662) 
1952

>  <target_id>  (662) 
1

>  <reference_id>  (662) 
191

>  <inspiration_ids>  (662) 
[29, 191]

>  <energy_score>  (662) 
-43.04339705803994

>  <distance_score>  (662) 
1.7097048973445712

>  <path>  (662) 
/opt/xchem-fragalysis-2/maxwin/BulkDock/SCRATCH/505732/C1952-P191/C1952-P191.minimised.mol

>  <scratch_subdir>  (662) 
/opt/xchem-fragalysis-2/maxwin/BulkDock/SCRATCH/505732/C1952-P191

>  <fragmenstein_runtime>  (662) 
37.58267593383789

>  <fragmenstein_outcome>  (662) 
too moved

>  <fragmenstein_mode>  (662) 
expansion

>  <fragmenstein_error>  (662) 


$$$$
C1955-P30
     RDKit          3D

 42 43  0  0  0  0  0  0  0  0999 V2000
  -13.7541  -26.4583   16.0801 C   0  0  0  0  0  0  0  0  0  0  0  0
  -13.6201  -26.6273   14.5723 C   0  0  0  0  0  0  0  0  0  0  0  0
  -12.8851  -27.8692   14.2789 N   0  0  0  0  0  0  0  0  0  0  0  0
  -12.8752  -25.4819   14.0126 C   0  0  0  0  0  0  0  0  0  0  0  0
  -11.5767  -25.2752   14.0604 N   0  0  0  0  0  0  0  0  0  0  0  0
  -11.4478  -24.2029   13.2346 C   0  0  0  0  0  0  0  0  0  0  0  0
  -10.1452  -23.8403   12.6633 C   0  0  0  0  0  0  0  0  0  0  0  0
   -9.7996  -25.0054   11.7483 C   0  0  0  0  0  0  0  0  0  0  0  0
   -8.4712  -25.4221   11.5985 C   0  0  0  0  0  0  0  0  0  0  0  0
   -8.1415  -26.4752   10.7504 C   0  0  0  0  0  0  0  0  0  0  0  0
   -9.1426  -27.1350   10.0447 C   0  0  0  0  0  0  0  0  0  0  0  0
  -10.4739  -26.7552   10.1637 C   0  0  0  0  0  0  0  0  0  0  0  0
  -11.3418  -27.5091    9.4341 O   0  0  0  0  0  0  0  0  0  0  0  0
  -12.7054  -27.1304    9.3418 C   0  0  0  0  0  0  0  0  0  0  0  0
  -13.5569  -27.7800   10.4452 C   0  0  0  0  0  0  0  0  0  0  0  0
  -13.7154  -27.2804   11.5004 O   0  0  0  0  0  0  0  0  0  0  0  0
  -14.0956  -29.0885    9.8846 N   0  0  0  0  0  0  0  0  0  0  0  0
  -13.1553  -30.2328   10.1694 C   0  0  0  0  0  0  0  0  0  0  0  0
  -15.0596  -30.0707   10.4644 C   0  0  0  0  0  0  0  0  0  0  0  0
  -10.7870  -25.6803   10.9848 C   0  0  0  0  0  0  0  0  0  0  0  0
  -12.6034  -23.6967   12.7859 N   0  0  0  0  0  0  0  0  0  0  0  0
  -13.5630  -24.5505   13.3067 O   0  0  0  0  0  0  0  0  0  0  0  0
  -12.7775  -26.4045   16.5766 H   0  0  0  0  0  0  0  0  0  0  0  0
  -14.3074  -27.2959   16.5194 H   0  0  0  0  0  0  0  0  0  0  0  0
  -14.2965  -25.5373   16.3244 H   0  0  0  0  0  0  0  0  0  0  0  0
  -14.6197  -26.6953   14.1294 H   0  0  0  0  0  0  0  0  0  0  0  0
  -11.8904  -27.6951   14.4531 H   0  0  0  0  0  0  0  0  0  0  0  0
  -12.9330  -27.9832   13.2569 H   0  0  0  0  0  0  0  0  0  0  0  0
   -9.4171  -23.7221   13.4655 H   0  0  0  0  0  0  0  0  0  0  0  0
  -10.1914  -22.9116   12.0906 H   0  0  0  0  0  0  0  0  0  0  0  0
   -7.6619  -24.9160   12.1126 H   0  0  0  0  0  0  0  0  0  0  0  0
   -7.1044  -26.7805   10.6364 H   0  0  0  0  0  0  0  0  0  0  0  0
   -8.8746  -27.9615    9.3906 H   0  0  0  0  0  0  0  0  0  0  0  0
  -13.0684  -27.4802    8.3677 H   0  0  0  0  0  0  0  0  0  0  0  0
  -12.8614  -26.0461    9.3283 H   0  0  0  0  0  0  0  0  0  0  0  0
  -12.1825  -29.9027    9.7793 H   0  0  0  0  0  0  0  0  0  0  0  0
  -12.9461  -30.3895   11.2398 H   0  0  0  0  0  0  0  0  0  0  0  0
  -13.3405  -31.1566    9.5993 H   0  0  0  0  0  0  0  0  0  0  0  0
  -16.0068  -29.5108   10.4612 H   0  0  0  0  0  0  0  0  0  0  0  0
  -15.2778  -30.9424    9.8300 H   0  0  0  0  0  0  0  0  0  0  0  0
  -14.9255  -30.2897   11.5355 H   0  0  0  0  0  0  0  0  0  0  0  0
  -11.8221  -25.3650   11.0470 H   0  0  0  0  0  0  0  0  0  0  0  0
  1  2  1  0
  2  3  1  0
  2  4  1  0
  4  5  2  0
  5  6  1  0
  6  7  1  0
  7  8  1  0
  8  9  2  0
  9 10  1  0
 10 11  2  0
 11 12  1  0
 12 13  1  0
 13 14  1  0
 14 15  1  0
 15 16  2  0
 15 17  1  0
 17 18  1  0
 17 19  1  0
 12 20  2  0
  6 21  2  0
 21 22  1  0
 22  4  1  0
 20  8  1  0
  1 23  1  0
  1 24  1  0
  1 25  1  0
  2 26  1  0
  3 27  1  0
  3 28  1  0
  7 29  1  0
  7 30  1  0
  9 31  1  0
 10 32  1  0
 11 33  1  0
 14 34  1  0
 14 35  1  0
 18 36  1  0
 18 37  1  0
 18 38  1  0
 19 39  1  0
 19 40  1  0
 19 41  1  0
 20 42  1  0
M  END
>  <Energy>  (663) 
168.2262475419644

>  <compound_id>  (663) 
1955

>  <target_id>  (663) 
1

>  <reference_id>  (663) 
30

>  <inspiration_ids>  (663) 
[30, 28]

>  <energy_score>  (663) 
46.902568160071276

>  <distance_score>  (663) 
2.1976651184140206

>  <path>  (663) 
/opt/xchem-fragalysis-2/maxwin/BulkDock/SCRATCH/505732/C1955-P30/C1955-P30.minimised.mol

>  <scratch_subdir>  (663) 
/opt/xchem-fragalysis-2/maxwin/BulkDock/SCRATCH/505732/C1955-P30

>  <fragmenstein_runtime>  (663) 
3.0128579139709473

>  <fragmenstein_outcome>  (663) 
too moved

>  <fragmenstein_mode>  (663) 
expansion

>  <fragmenstein_error>  (663) 


$$$$
C1955-P28
     RDKit          3D

 42 43  0  0  0  0  0  0  0  0999 V2000
  -14.3448  -26.4614   15.3563 C   0  0  0  0  0  0  0  0  0  0  0  0
  -12.9780  -26.6751   14.7268 C   0  0  0  0  0  0  0  0  0  0  0  0
  -13.0114  -27.7090   13.6909 N   0  0  0  0  0  0  0  0  0  0  0  0
  -12.4195  -25.4226   14.1747 C   0  0  0  0  0  0  0  0  0  0  0  0
  -11.1613  -25.0540   14.1364 N   0  0  0  0  0  0  0  0  0  0  0  0
  -11.2150  -23.9945   13.2777 C   0  0  0  0  0  0  0  0  0  0  0  0
  -10.0250  -23.5904   12.5119 C   0  0  0  0  0  0  0  0  0  0  0  0
   -9.7325  -24.8257   11.6755 C   0  0  0  0  0  0  0  0  0  0  0  0
   -8.4490  -25.3707   11.5883 C   0  0  0  0  0  0  0  0  0  0  0  0
   -8.2156  -26.5305   10.8507 C   0  0  0  0  0  0  0  0  0  0  0  0
   -9.2647  -27.1730   10.1922 C   0  0  0  0  0  0  0  0  0  0  0  0
  -10.5476  -26.6527   10.2459 C   0  0  0  0  0  0  0  0  0  0  0  0
  -11.6643  -27.1647    9.6524 O   0  0  0  0  0  0  0  0  0  0  0  0
  -11.5003  -28.2311    8.7346 C   0  0  0  0  0  0  0  0  0  0  0  0
  -10.7514  -27.9689    7.4039 C   0  0  0  0  0  0  0  0  0  0  0  0
   -9.7450  -28.5231    7.1397 O   0  0  0  0  0  0  0  0  0  0  0  0
  -11.5976  -27.0143    6.5726 N   0  0  0  0  0  0  0  0  0  0  0  0
  -11.1711  -25.5803    6.7832 C   0  0  0  0  0  0  0  0  0  0  0  0
  -11.4590  -26.5795    5.1517 C   0  0  0  0  0  0  0  0  0  0  0  0
  -10.7614  -25.4742   10.9553 C   0  0  0  0  0  0  0  0  0  0  0  0
  -12.4527  -23.6275   12.9151 N   0  0  0  0  0  0  0  0  0  0  0  0
  -13.2601  -24.5893   13.5014 O   0  0  0  0  0  0  0  0  0  0  0  0
  -14.3038  -25.6904   16.1346 H   0  0  0  0  0  0  0  0  0  0  0  0
  -14.7073  -27.3848   15.8219 H   0  0  0  0  0  0  0  0  0  0  0  0
  -15.0927  -26.1469   14.6189 H   0  0  0  0  0  0  0  0  0  0  0  0
  -12.3037  -27.0268   15.5173 H   0  0  0  0  0  0  0  0  0  0  0  0
  -12.0631  -27.8304   13.3228 H   0  0  0  0  0  0  0  0  0  0  0  0
  -13.5616  -27.3837   12.8949 H   0  0  0  0  0  0  0  0  0  0  0  0
  -10.2144  -22.7371   11.8564 H   0  0  0  0  0  0  0  0  0  0  0  0
   -9.2059  -23.3326   13.1819 H   0  0  0  0  0  0  0  0  0  0  0  0
   -7.6035  -24.8981   12.0762 H   0  0  0  0  0  0  0  0  0  0  0  0
   -7.2102  -26.9420   10.7917 H   0  0  0  0  0  0  0  0  0  0  0  0
   -9.0314  -28.0840    9.6494 H   0  0  0  0  0  0  0  0  0  0  0  0
  -12.5089  -28.5646    8.4588 H   0  0  0  0  0  0  0  0  0  0  0  0
  -11.0462  -29.0964    9.2349 H   0  0  0  0  0  0  0  0  0  0  0  0
  -10.1077  -25.3955    6.5632 H   0  0  0  0  0  0  0  0  0  0  0  0
  -11.2305  -25.4212    7.8648 H   0  0  0  0  0  0  0  0  0  0  0  0
  -11.8574  -24.8107    6.3958 H   0  0  0  0  0  0  0  0  0  0  0  0
  -11.6777  -27.5023    4.5936 H   0  0  0  0  0  0  0  0  0  0  0  0
  -12.2334  -25.8815    4.8006 H   0  0  0  0  0  0  0  0  0  0  0  0
  -10.4335  -26.3491    4.8227 H   0  0  0  0  0  0  0  0  0  0  0  0
  -11.7715  -25.0681   10.9381 H   0  0  0  0  0  0  0  0  0  0  0  0
  1  2  1  0
  2  3  1  0
  2  4  1  0
  4  5  2  0
  5  6  1  0
  6  7  1  0
  7  8  1  0
  8  9  2  0
  9 10  1  0
 10 11  2  0
 11 12  1  0
 12 13  1  0
 13 14  1  0
 14 15  1  0
 15 16  2  0
 15 17  1  0
 17 18  1  0
 17 19  1  0
 12 20  2  0
  6 21  2  0
 21 22  1  0
 22  4  1  0
 20  8  1  0
  1 23  1  0
  1 24  1  0
  1 25  1  0
  2 26  1  0
  3 27  1  0
  3 28  1  0
  7 29  1  0
  7 30  1  0
  9 31  1  0
 10 32  1  0
 11 33  1  0
 14 34  1  0
 14 35  1  0
 18 36  1  0
 18 37  1  0
 18 38  1  0
 19 39  1  0
 19 40  1  0
 19 41  1  0
 20 42  1  0
M  END
>  <Energy>  (664) 
174.71761640226467

>  <compound_id>  (664) 
1955

>  <target_id>  (664) 
1

>  <reference_id>  (664) 
28

>  <inspiration_ids>  (664) 
[30, 28]

>  <energy_score>  (664) 
53.39393702037056

>  <distance_score>  (664) 
2.8098026586325275

>  <path>  (664) 
/opt/xchem-fragalysis-2/maxwin/BulkDock/SCRATCH/505732/C1955-P28/C1955-P28.minimised.mol

>  <scratch_subdir>  (664) 
/opt/xchem-fragalysis-2/maxwin/BulkDock/SCRATCH/505732/C1955-P28

>  <fragmenstein_runtime>  (664) 
3.6605615615844727

>  <fragmenstein_outcome>  (664) 
too moved

>  <fragmenstein_mode>  (664) 
expansion

>  <fragmenstein_error>  (664) 


$$$$
C1260-P30
     RDKit          3D

 40 42  0  0  0  0  0  0  0  0999 V2000
  -10.9868  -27.6649   16.3549 C   0  0  0  0  0  0  0  0  0  0  0  0
  -11.5878  -26.6013   15.4720 C   0  0  0  0  0  0  0  0  0  0  0  0
  -11.9913  -27.2524   14.2313 N   0  0  0  0  0  0  0  0  0  0  0  0
  -12.4421  -26.3380   13.1639 C   0  0  0  0  0  0  0  0  0  0  0  0
  -13.7827  -25.6973   13.4151 C   0  0  0  0  0  0  0  0  0  0  0  0
  -14.3774  -25.5959   14.6171 N   0  0  0  0  0  0  0  0  0  0  0  0
  -15.5239  -24.8534   14.3560 O   0  0  0  0  0  0  0  0  0  0  0  0
  -15.5097  -24.5718   13.0211 C   0  0  0  0  0  0  0  0  0  0  0  0
  -16.6665  -23.7892   12.4801 C   0  0  0  0  0  0  0  0  0  0  0  0
  -17.9030  -24.6772   12.3585 C   0  0  0  0  0  0  0  0  0  0  0  0
  -17.0009  -22.6068   13.2900 N   0  0  0  0  0  0  0  0  0  0  0  0
  -14.4760  -25.0781   12.3934 N   0  0  0  0  0  0  0  0  0  0  0  0
  -11.4151  -25.2784   12.8260 C   0  0  0  0  0  0  0  0  0  0  0  0
  -11.5804  -23.9239   13.1656 C   0  0  0  0  0  0  0  0  0  0  0  0
  -10.5338  -23.0166   13.1512 C   0  0  0  0  0  0  0  0  0  0  0  0
   -9.2756  -23.4152   12.7878 C   0  0  0  0  0  0  0  0  0  0  0  0
   -9.1311  -24.7114   12.2819 C   0  0  0  0  0  0  0  0  0  0  0  0
   -8.0245  -25.3319   11.7303 N   0  0  0  0  0  0  0  0  0  0  0  0
   -8.3316  -26.6094   11.3618 C   0  0  0  0  0  0  0  0  0  0  0  0
   -9.6464  -26.8228   11.6922 C   0  0  0  0  0  0  0  0  0  0  0  0
  -10.1692  -25.6311   12.2628 C   0  0  0  0  0  0  0  0  0  0  0  0
  -10.0661  -28.0662   15.9190 H   0  0  0  0  0  0  0  0  0  0  0  0
  -11.6928  -28.4859   16.5190 H   0  0  0  0  0  0  0  0  0  0  0  0
  -10.7520  -27.2291   17.3248 H   0  0  0  0  0  0  0  0  0  0  0  0
  -12.4322  -26.1550   16.0009 H   0  0  0  0  0  0  0  0  0  0  0  0
  -10.8315  -25.8276   15.3128 H   0  0  0  0  0  0  0  0  0  0  0  0
  -11.1840  -27.7521   13.8614 H   0  0  0  0  0  0  0  0  0  0  0  0
  -12.5825  -26.9559   12.2661 H   0  0  0  0  0  0  0  0  0  0  0  0
  -16.3989  -23.4363   11.4772 H   0  0  0  0  0  0  0  0  0  0  0  0
  -18.7398  -24.1270   11.9135 H   0  0  0  0  0  0  0  0  0  0  0  0
  -17.6989  -25.5445   11.7200 H   0  0  0  0  0  0  0  0  0  0  0  0
  -18.2287  -25.0568   13.3343 H   0  0  0  0  0  0  0  0  0  0  0  0
  -17.2283  -22.9027   14.2394 H   0  0  0  0  0  0  0  0  0  0  0  0
  -16.1819  -22.0038   13.3743 H   0  0  0  0  0  0  0  0  0  0  0  0
  -12.5462  -23.5677   13.5047 H   0  0  0  0  0  0  0  0  0  0  0  0
  -10.6703  -21.9852   13.4544 H   0  0  0  0  0  0  0  0  0  0  0  0
   -8.4556  -22.7025   12.8404 H   0  0  0  0  0  0  0  0  0  0  0  0
   -7.1171  -24.8979   11.6136 H   0  0  0  0  0  0  0  0  0  0  0  0
   -7.5912  -27.2517   10.9037 H   0  0  0  0  0  0  0  0  0  0  0  0
  -10.1795  -27.7498   11.5261 H   0  0  0  0  0  0  0  0  0  0  0  0
  1  2  1  0
  2  3  1  0
  3  4  1  0
  4  5  1  0
  5  6  2  0
  6  7  1  0
  7  8  1  0
  8  9  1  0
  9 10  1  0
  9 11  1  0
  8 12  2  0
  4 13  1  0
 13 14  2  0
 14 15  1  0
 15 16  2  0
 16 17  1  0
 17 18  1  0
 18 19  1  0
 19 20  2  0
 20 21  1  0
 12  5  1  0
 21 13  1  0
 21 17  2  0
  1 22  1  0
  1 23  1  0
  1 24  1  0
  2 25  1  0
  2 26  1  0
  3 27  1  0
  4 28  1  0
  9 29  1  0
 10 30  1  0
 10 31  1  0
 10 32  1  0
 11 33  1  0
 11 34  1  0
 14 35  1  0
 15 36  1  0
 16 37  1  0
 18 38  1  0
 19 39  1  0
 20 40  1  0
M  END
>  <Energy>  (665) 
99.933972191716492

>  <compound_id>  (665) 
1260

>  <target_id>  (665) 
1

>  <reference_id>  (665) 
30

>  <inspiration_ids>  (665) 
[30, 77]

>  <energy_score>  (665) 
-19.681029820581898

>  <distance_score>  (665) 
1.8385569380293734

>  <path>  (665) 
/opt/xchem-fragalysis-2/maxwin/BulkDock/SCRATCH/505732/C1260-P30/C1260-P30.minimised.mol

>  <scratch_subdir>  (665) 
/opt/xchem-fragalysis-2/maxwin/BulkDock/SCRATCH/505732/C1260-P30

>  <fragmenstein_runtime>  (665) 
2.114016532897949

>  <fragmenstein_outcome>  (665) 
too moved

>  <fragmenstein_mode>  (665) 
expansion

>  <fragmenstein_error>  (665) 


$$$$
C1260-P77
     RDKit          3D

 40 42  0  0  0  0  0  0  0  0999 V2000
  -10.7846  -27.8150   16.2299 C   0  0  0  0  0  0  0  0  0  0  0  0
  -11.4747  -26.7379   15.4256 C   0  0  0  0  0  0  0  0  0  0  0  0
  -11.9472  -27.3552   14.1924 N   0  0  0  0  0  0  0  0  0  0  0  0
  -12.4160  -26.4156   13.1551 C   0  0  0  0  0  0  0  0  0  0  0  0
  -13.7383  -25.7642   13.4626 C   0  0  0  0  0  0  0  0  0  0  0  0
  -14.2098  -25.5149   14.6972 N   0  0  0  0  0  0  0  0  0  0  0  0
  -15.3733  -24.7887   14.4641 O   0  0  0  0  0  0  0  0  0  0  0  0
  -15.4872  -24.6583   13.1111 C   0  0  0  0  0  0  0  0  0  0  0  0
  -16.7100  -23.9622   12.5885 C   0  0  0  0  0  0  0  0  0  0  0  0
  -17.1072  -22.7586   13.4384 C   0  0  0  0  0  0  0  0  0  0  0  0
  -16.5243  -23.5085   11.1977 N   0  0  0  0  0  0  0  0  0  0  0  0
  -14.5335  -25.2725   12.4477 N   0  0  0  0  0  0  0  0  0  0  0  0
  -11.3917  -25.3637   12.7812 C   0  0  0  0  0  0  0  0  0  0  0  0
  -11.5736  -23.9953   13.0449 C   0  0  0  0  0  0  0  0  0  0  0  0
  -10.5316  -23.0843   12.9967 C   0  0  0  0  0  0  0  0  0  0  0  0
   -9.2681  -23.4875   12.6702 C   0  0  0  0  0  0  0  0  0  0  0  0
   -9.1142  -24.7913   12.1985 C   0  0  0  0  0  0  0  0  0  0  0  0
   -8.0076  -25.4127   11.6518 N   0  0  0  0  0  0  0  0  0  0  0  0
   -8.3020  -26.7066   11.3330 C   0  0  0  0  0  0  0  0  0  0  0  0
   -9.6101  -26.9255   11.6874 C   0  0  0  0  0  0  0  0  0  0  0  0
  -10.1438  -25.7221   12.2219 C   0  0  0  0  0  0  0  0  0  0  0  0
   -9.9139  -28.2212   15.7041 H   0  0  0  0  0  0  0  0  0  0  0  0
  -11.4706  -28.6359   16.4629 H   0  0  0  0  0  0  0  0  0  0  0  0
  -10.4421  -27.3814   17.1660 H   0  0  0  0  0  0  0  0  0  0  0  0
  -12.2937  -26.3334   16.0243 H   0  0  0  0  0  0  0  0  0  0  0  0
  -10.7503  -25.9388   15.2441 H   0  0  0  0  0  0  0  0  0  0  0  0
  -11.1720  -27.8730   13.7825 H   0  0  0  0  0  0  0  0  0  0  0  0
  -12.5948  -27.0205   12.2550 H   0  0  0  0  0  0  0  0  0  0  0  0
  -17.5300  -24.6904   12.5991 H   0  0  0  0  0  0  0  0  0  0  0  0
  -16.3022  -22.0174   13.4929 H   0  0  0  0  0  0  0  0  0  0  0  0
  -17.3460  -23.0624   14.4638 H   0  0  0  0  0  0  0  0  0  0  0  0
  -17.9963  -22.2636   13.0315 H   0  0  0  0  0  0  0  0  0  0  0  0
  -17.4327  -23.3107   10.7836 H   0  0  0  0  0  0  0  0  0  0  0  0
  -16.1197  -24.2813   10.6649 H   0  0  0  0  0  0  0  0  0  0  0  0
  -12.5456  -23.6242   13.3535 H   0  0  0  0  0  0  0  0  0  0  0  0
  -10.6677  -22.0401   13.2478 H   0  0  0  0  0  0  0  0  0  0  0  0
   -8.4578  -22.7641   12.7159 H   0  0  0  0  0  0  0  0  0  0  0  0
   -7.1087  -24.9702   11.5059 H   0  0  0  0  0  0  0  0  0  0  0  0
   -7.5594  -27.3547   10.8870 H   0  0  0  0  0  0  0  0  0  0  0  0
  -10.1330  -27.8639   11.5568 H   0  0  0  0  0  0  0  0  0  0  0  0
  1  2  1  0
  2  3  1  0
  3  4  1  0
  4  5  1  0
  5  6  2  0
  6  7  1  0
  7  8  1  0
  8  9  1  0
  9 10  1  0
  9 11  1  0
  8 12  2  0
  4 13  1  0
 13 14  2  0
 14 15  1  0
 15 16  2  0
 16 17  1  0
 17 18  1  0
 18 19  1  0
 19 20  2  0
 20 21  1  0
 12  5  1  0
 21 13  1  0
 21 17  2  0
  1 22  1  0
  1 23  1  0
  1 24  1  0
  2 25  1  0
  2 26  1  0
  3 27  1  0
  4 28  1  0
  9 29  1  0
 10 30  1  0
 10 31  1  0
 10 32  1  0
 11 33  1  0
 11 34  1  0
 14 35  1  0
 15 36  1  0
 16 37  1  0
 18 38  1  0
 19 39  1  0
 20 40  1  0
M  END
>  <Energy>  (666) 
100.74584422609978

>  <compound_id>  (666) 
1260

>  <target_id>  (666) 
1

>  <reference_id>  (666) 
77

>  <inspiration_ids>  (666) 
[30, 77]

>  <energy_score>  (666) 
-18.869157786198798

>  <distance_score>  (666) 
1.847730886810498

>  <path>  (666) 
/opt/xchem-fragalysis-2/maxwin/BulkDock/SCRATCH/505732/C1260-P77/C1260-P77.minimised.mol

>  <scratch_subdir>  (666) 
/opt/xchem-fragalysis-2/maxwin/BulkDock/SCRATCH/505732/C1260-P77

>  <fragmenstein_runtime>  (666) 
3.115605354309082

>  <fragmenstein_outcome>  (666) 
too moved

>  <fragmenstein_mode>  (666) 
expansion

>  <fragmenstein_error>  (666) 


$$$$
C1958-P31
     RDKit          3D

 49 51  0  0  0  0  0  0  0  0999 V2000
   19.1131   -1.8678    9.7479 C   0  0  0  0  0  0  0  0  0  0  0  0
   18.1349   -2.5691   10.6818 C   0  0  0  0  0  0  0  0  0  0  0  0
   18.8045   -2.8349   11.9648 N   0  0  0  0  0  0  0  0  0  0  0  0
   16.8975   -1.7693   10.8766 C   0  0  0  0  0  0  0  0  0  0  0  0
   16.0820   -1.7620   11.9013 N   0  0  0  0  0  0  0  0  0  0  0  0
   15.1569   -0.8425   11.5085 C   0  0  0  0  0  0  0  0  0  0  0  0
   14.0642   -0.3915   12.3758 C   0  0  0  0  0  0  0  0  0  0  0  0
   13.8216   -1.2816   13.5872 C   0  0  0  0  0  0  0  0  0  0  0  0
   12.3938   -1.8591   13.6767 C   0  0  0  0  0  0  0  0  0  0  0  0
   11.8842   -2.3092   15.0409 C   0  0  0  0  0  0  0  0  0  0  0  0
   12.9647   -2.6222   16.0442 C   0  0  0  0  0  0  0  0  0  0  0  0
   14.2438   -1.8028   15.8935 C   0  0  0  0  0  0  0  0  0  0  0  0
   14.2738   -0.5750   14.8683 C   0  0  0  0  0  0  0  0  0  0  0  0
   15.7635   -0.0831   14.8025 C   0  0  0  0  0  0  0  0  0  0  0  0
   15.8159    1.2487   15.4441 N   0  0  0  0  0  0  0  0  0  0  0  0
   14.5295    1.8518   15.1098 C   0  0  0  0  0  0  0  0  0  0  0  0
   14.7093    2.8318   13.9093 C   0  0  0  0  0  0  0  0  0  0  0  0
   13.5012    3.5027   13.5468 O   0  0  0  0  0  0  0  0  0  0  0  0
   13.5729    0.7263   15.1115 N   0  0  0  0  0  0  0  0  0  0  0  0
   12.2845    1.0823   14.5642 C   0  0  0  0  0  0  0  0  0  0  0  0
   15.3690   -0.2844   10.3141 N   0  0  0  0  0  0  0  0  0  0  0  0
   16.5176   -0.9261    9.8737 O   0  0  0  0  0  0  0  0  0  0  0  0
   18.6838   -1.7365    8.7479 H   0  0  0  0  0  0  0  0  0  0  0  0
   20.0307   -2.4555    9.6283 H   0  0  0  0  0  0  0  0  0  0  0  0
   19.3953   -0.8766   10.1227 H   0  0  0  0  0  0  0  0  0  0  0  0
   17.8567   -3.5328   10.2510 H   0  0  0  0  0  0  0  0  0  0  0  0
   19.4608   -3.6039   11.8523 H   0  0  0  0  0  0  0  0  0  0  0  0
   18.0920   -3.1500   12.6297 H   0  0  0  0  0  0  0  0  0  0  0  0
   13.1807   -0.2397   11.7806 H   0  0  0  0  0  0  0  0  0  0  0  0
   14.3167    0.6223   12.6542 H   0  0  0  0  0  0  0  0  0  0  0  0
   14.4500   -2.1744   13.4762 H   0  0  0  0  0  0  0  0  0  0  0  0
   11.6707   -1.1535   13.2696 H   0  0  0  0  0  0  0  0  0  0  0  0
   12.3602   -2.7371   13.0324 H   0  0  0  0  0  0  0  0  0  0  0  0
   11.2270   -3.1797   14.9196 H   0  0  0  0  0  0  0  0  0  0  0  0
   11.2304   -1.5403   15.4622 H   0  0  0  0  0  0  0  0  0  0  0  0
   12.5685   -2.5051   17.0539 H   0  0  0  0  0  0  0  0  0  0  0  0
   13.2197   -3.6861   15.9919 H   0  0  0  0  0  0  0  0  0  0  0  0
   14.9988   -2.5180   15.5238 H   0  0  0  0  0  0  0  0  0  0  0  0
   14.6440   -1.6052   16.8849 H   0  0  0  0  0  0  0  0  0  0  0  0
   16.1537    0.0388   13.7923 H   0  0  0  0  0  0  0  0  0  0  0  0
   16.4548   -0.7549   15.3235 H   0  0  0  0  0  0  0  0  0  0  0  0
   15.7243    1.0221   16.4418 H   0  0  0  0  0  0  0  0  0  0  0  0
   14.2323    2.5091   15.9373 H   0  0  0  0  0  0  0  0  0  0  0  0
   15.1280    2.3551   13.0212 H   0  0  0  0  0  0  0  0  0  0  0  0
   15.4237    3.6112   14.2033 H   0  0  0  0  0  0  0  0  0  0  0  0
   13.7323    4.0977   12.8125 H   0  0  0  0  0  0  0  0  0  0  0  0
   11.5007    0.3925   14.8697 H   0  0  0  0  0  0  0  0  0  0  0  0
   12.2664    1.1774   13.4767 H   0  0  0  0  0  0  0  0  0  0  0  0
   11.9513    2.0429   14.9767 H   0  0  0  0  0  0  0  0  0  0  0  0
  1  2  1  0
  2  3  1  0
  2  4  1  0
  4  5  2  0
  5  6  1  0
  6  7  1  0
  7  8  1  0
  8  9  1  0
  9 10  1  0
 10 11  1  0
 11 12  1  0
 12 13  1  0
 13 14  1  0
 14 15  1  0
 15 16  1  0
 16 17  1  0
 17 18  1  0
 16 19  1  0
 19 20  1  0
  6 21  2  0
 21 22  1  0
 22  4  1  0
 13  8  1  0
 19 13  1  0
  1 23  1  0
  1 24  1  0
  1 25  1  0
  2 26  1  0
  3 27  1  0
  3 28  1  0
  7 29  1  0
  7 30  1  0
  8 31  1  0
  9 32  1  0
  9 33  1  0
 10 34  1  0
 10 35  1  0
 11 36  1  0
 11 37  1  0
 12 38  1  0
 12 39  1  0
 14 40  1  0
 14 41  1  0
 15 42  1  0
 16 43  1  0
 17 44  1  0
 17 45  1  0
 18 46  1  0
 20 47  1  0
 20 48  1  0
 20 49  1  0
M  END
>  <Energy>  (667) 
112.82182175833159

>  <compound_id>  (667) 
1958

>  <target_id>  (667) 
1

>  <reference_id>  (667) 
31

>  <inspiration_ids>  (667) 
[31, 6]

>  <energy_score>  (667) 
-51.38965046879815

>  <distance_score>  (667) 
1.6922839959049847

>  <path>  (667) 
/opt/xchem-fragalysis-2/maxwin/BulkDock/SCRATCH/505732/C1958-P31/C1958-P31.minimised.mol

>  <scratch_subdir>  (667) 
/opt/xchem-fragalysis-2/maxwin/BulkDock/SCRATCH/505732/C1958-P31

>  <fragmenstein_runtime>  (667) 
6.037124156951904

>  <fragmenstein_outcome>  (667) 
too moved

>  <fragmenstein_mode>  (667) 
expansion

>  <fragmenstein_error>  (667) 


$$$$
C1958-P6
     RDKit          3D

 49 51  0  0  0  0  0  0  0  0999 V2000
   18.5059   -1.8528    9.6713 C   0  0  0  0  0  0  0  0  0  0  0  0
   17.7227   -2.6077   10.7418 C   0  0  0  0  0  0  0  0  0  0  0  0
   18.6510   -2.9770   11.8227 N   0  0  0  0  0  0  0  0  0  0  0  0
   16.5826   -1.7900   11.2443 C   0  0  0  0  0  0  0  0  0  0  0  0
   16.2325   -1.5141   12.4798 N   0  0  0  0  0  0  0  0  0  0  0  0
   15.1614   -0.6953   12.2808 C   0  0  0  0  0  0  0  0  0  0  0  0
   14.5054   -0.0005   13.3959 C   0  0  0  0  0  0  0  0  0  0  0  0
   13.9233   -0.9478   14.4451 C   0  0  0  0  0  0  0  0  0  0  0  0
   12.6889   -1.6896   13.8788 C   0  0  0  0  0  0  0  0  0  0  0  0
   11.9088   -2.4984   14.9113 C   0  0  0  0  0  0  0  0  0  0  0  0
   12.7041   -2.6731   16.1896 C   0  0  0  0  0  0  0  0  0  0  0  0
   13.0223   -1.2993   16.7828 C   0  0  0  0  0  0  0  0  0  0  0  0
   13.6703   -0.2589   15.8118 C   0  0  0  0  0  0  0  0  0  0  0  0
   14.9946    0.2768   16.4416 C   0  0  0  0  0  0  0  0  0  0  0  0
   14.6867    1.6010   17.0182 N   0  0  0  0  0  0  0  0  0  0  0  0
   13.6343    2.1403   16.1597 C   0  0  0  0  0  0  0  0  0  0  0  0
   14.2061    3.0346   15.0173 C   0  0  0  0  0  0  0  0  0  0  0  0
   13.1724    3.6565   14.2508 O   0  0  0  0  0  0  0  0  0  0  0  0
   12.8445    0.9627   15.8417 N   0  0  0  0  0  0  0  0  0  0  0  0
   11.7355    1.1600   14.9439 C   0  0  0  0  0  0  0  0  0  0  0  0
   14.8335   -0.4663   11.0079 N   0  0  0  0  0  0  0  0  0  0  0  0
   15.7668   -1.2227   10.3072 O   0  0  0  0  0  0  0  0  0  0  0  0
   19.3452   -2.4534    9.3022 H   0  0  0  0  0  0  0  0  0  0  0  0
   18.9091   -0.9079   10.0550 H   0  0  0  0  0  0  0  0  0  0  0  0
   17.8740   -1.6146    8.8084 H   0  0  0  0  0  0  0  0  0  0  0  0
   17.3184   -3.5305   10.3192 H   0  0  0  0  0  0  0  0  0  0  0  0
   19.2269   -3.7608   11.5260 H   0  0  0  0  0  0  0  0  0  0  0  0
   18.0952   -3.2929   12.6214 H   0  0  0  0  0  0  0  0  0  0  0  0
   13.7475    0.6796   13.0000 H   0  0  0  0  0  0  0  0  0  0  0  0
   15.2943    0.6202   13.8175 H   0  0  0  0  0  0  0  0  0  0  0  0
   14.6862   -1.7190   14.6349 H   0  0  0  0  0  0  0  0  0  0  0  0
   12.0051   -0.9962   13.3811 H   0  0  0  0  0  0  0  0  0  0  0  0
   13.0242   -2.3693   13.0863 H   0  0  0  0  0  0  0  0  0  0  0  0
   11.6263   -3.4686   14.4931 H   0  0  0  0  0  0  0  0  0  0  0  0
   10.9636   -1.9910   15.1389 H   0  0  0  0  0  0  0  0  0  0  0  0
   12.1293   -3.2653   16.9078 H   0  0  0  0  0  0  0  0  0  0  0  0
   13.6293   -3.2299   16.0033 H   0  0  0  0  0  0  0  0  0  0  0  0
   13.6289   -1.4423   17.6832 H   0  0  0  0  0  0  0  0  0  0  0  0
   12.0672   -0.8902   17.1165 H   0  0  0  0  0  0  0  0  0  0  0  0
   15.8051    0.4051   15.7211 H   0  0  0  0  0  0  0  0  0  0  0  0
   15.3952   -0.3778   17.2231 H   0  0  0  0  0  0  0  0  0  0  0  0
   14.2379    1.4338   17.9186 H   0  0  0  0  0  0  0  0  0  0  0  0
   13.0052    2.8010   16.7711 H   0  0  0  0  0  0  0  0  0  0  0  0
   14.8631    2.4982   14.3376 H   0  0  0  0  0  0  0  0  0  0  0  0
   14.7994    3.8402   15.4665 H   0  0  0  0  0  0  0  0  0  0  0  0
   13.6173    4.2362   13.6088 H   0  0  0  0  0  0  0  0  0  0  0  0
   11.0361    0.3214   14.9929 H   0  0  0  0  0  0  0  0  0  0  0  0
   12.0183    1.3211   13.9035 H   0  0  0  0  0  0  0  0  0  0  0  0
   11.1477    2.0317   15.2565 H   0  0  0  0  0  0  0  0  0  0  0  0
  1  2  1  0
  2  3  1  0
  2  4  1  0
  4  5  2  0
  5  6  1  0
  6  7  1  0
  7  8  1  0
  8  9  1  0
  9 10  1  0
 10 11  1  0
 11 12  1  0
 12 13  1  0
 13 14  1  0
 14 15  1  0
 15 16  1  0
 16 17  1  0
 17 18  1  0
 16 19  1  0
 19 20  1  0
  6 21  2  0
 21 22  1  0
 22  4  1  0
 13  8  1  0
 19 13  1  0
  1 23  1  0
  1 24  1  0
  1 25  1  0
  2 26  1  0
  3 27  1  0
  3 28  1  0
  7 29  1  0
  7 30  1  0
  8 31  1  0
  9 32  1  0
  9 33  1  0
 10 34  1  0
 10 35  1  0
 11 36  1  0
 11 37  1  0
 12 38  1  0
 12 39  1  0
 14 40  1  0
 14 41  1  0
 15 42  1  0
 16 43  1  0
 17 44  1  0
 17 45  1  0
 18 46  1  0
 20 47  1  0
 20 48  1  0
 20 49  1  0
M  END
>  <Energy>  (668) 
90.075964971052812

>  <compound_id>  (668) 
1958

>  <target_id>  (668) 
1

>  <reference_id>  (668) 
6

>  <inspiration_ids>  (668) 
[31, 6]

>  <energy_score>  (668) 
-74.13550725607519

>  <distance_score>  (668) 
1.3452895065789072

>  <path>  (668) 
/opt/xchem-fragalysis-2/maxwin/BulkDock/SCRATCH/505732/C1958-P6/C1958-P6.minimised.mol

>  <scratch_subdir>  (668) 
/opt/xchem-fragalysis-2/maxwin/BulkDock/SCRATCH/505732/C1958-P6

>  <fragmenstein_runtime>  (668) 
5.862542629241943

>  <fragmenstein_outcome>  (668) 
too moved

>  <fragmenstein_mode>  (668) 
expansion

>  <fragmenstein_error>  (668) 


$$$$
C1959-P31
     RDKit          3D

 48 50  0  0  0  0  0  0  0  0999 V2000
   18.7643   -1.2514    9.5332 C   0  0  0  0  0  0  0  0  0  0  0  0
   18.1929   -2.4141   10.3347 C   0  0  0  0  0  0  0  0  0  0  0  0
   19.1092   -2.7065   11.4482 N   0  0  0  0  0  0  0  0  0  0  0  0
   16.8231   -2.1212   10.8338 C   0  0  0  0  0  0  0  0  0  0  0  0
   16.2476   -2.5702   11.9229 N   0  0  0  0  0  0  0  0  0  0  0  0
   15.0630   -1.9134   11.9100 C   0  0  0  0  0  0  0  0  0  0  0  0
   14.1496   -1.9100   13.0578 C   0  0  0  0  0  0  0  0  0  0  0  0
   14.7285   -1.5893   14.4872 C   0  0  0  0  0  0  0  0  0  0  0  0
   13.5366   -0.9869   15.1750 C   0  0  0  0  0  0  0  0  0  0  0  0
   13.3158    0.4514   14.7305 C   0  0  0  0  0  0  0  0  0  0  0  0
   14.2389    0.9802   13.6203 C   0  0  0  0  0  0  0  0  0  0  0  0
   15.7065    0.4667   13.5471 C   0  0  0  0  0  0  0  0  0  0  0  0
   16.0264   -0.6603   14.5682 C   0  0  0  0  0  0  0  0  0  0  0  0
   16.4402    0.2692   15.7654 C   0  0  0  0  0  0  0  0  0  0  0  0
   16.8183   -0.3381   17.0320 N   0  0  0  0  0  0  0  0  0  0  0  0
   17.5593   -1.5523   16.8750 C   0  0  0  0  0  0  0  0  0  0  0  0
   18.4672   -1.5929   17.9513 O   0  0  0  0  0  0  0  0  0  0  0  0
   18.3250   -1.5155   15.5674 C   0  0  0  0  0  0  0  0  0  0  0  0
   17.3259   -1.5680   14.4039 C   0  0  0  0  0  0  0  0  0  0  0  0
   17.0135   -2.9750   14.4034 O   0  0  0  0  0  0  0  0  0  0  0  0
   14.8544   -1.1423   10.8357 N   0  0  0  0  0  0  0  0  0  0  0  0
   16.0345   -1.2731   10.1151 O   0  0  0  0  0  0  0  0  0  0  0  0
   19.7815   -1.4724    9.1895 H   0  0  0  0  0  0  0  0  0  0  0  0
   18.1596   -1.0497    8.6415 H   0  0  0  0  0  0  0  0  0  0  0  0
   18.8015   -0.3287   10.1248 H   0  0  0  0  0  0  0  0  0  0  0  0
   18.1498   -3.2984    9.6941 H   0  0  0  0  0  0  0  0  0  0  0  0
   18.6527   -3.3610   12.0882 H   0  0  0  0  0  0  0  0  0  0  0  0
   19.9354   -3.1840   11.0930 H   0  0  0  0  0  0  0  0  0  0  0  0
   13.6119   -2.8529   13.0653 H   0  0  0  0  0  0  0  0  0  0  0  0
   13.3274   -1.2316   12.8037 H   0  0  0  0  0  0  0  0  0  0  0  0
   14.9181   -2.5328   15.0088 H   0  0  0  0  0  0  0  0  0  0  0  0
   12.6243   -1.5672   14.9740 H   0  0  0  0  0  0  0  0  0  0  0  0
   13.6875   -1.1311   16.2361 H   0  0  0  0  0  0  0  0  0  0  0  0
   12.2751    0.5666   14.3995 H   0  0  0  0  0  0  0  0  0  0  0  0
   13.4032    1.1455   15.5638 H   0  0  0  0  0  0  0  0  0  0  0  0
   13.7627    0.8221   12.6451 H   0  0  0  0  0  0  0  0  0  0  0  0
   14.2713    2.0752   13.7084 H   0  0  0  0  0  0  0  0  0  0  0  0
   16.3576    1.3422   13.6920 H   0  0  0  0  0  0  0  0  0  0  0  0
   15.9821    0.2062   12.5289 H   0  0  0  0  0  0  0  0  0  0  0  0
   17.3363    0.8354   15.4596 H   0  0  0  0  0  0  0  0  0  0  0  0
   15.7419    1.0983   15.9089 H   0  0  0  0  0  0  0  0  0  0  0  0
   15.9461   -0.5460   17.5276 H   0  0  0  0  0  0  0  0  0  0  0  0
   16.9123   -2.4338   16.9386 H   0  0  0  0  0  0  0  0  0  0  0  0
   18.4623   -0.6679   18.2501 H   0  0  0  0  0  0  0  0  0  0  0  0
   19.0180   -2.3674   15.5300 H   0  0  0  0  0  0  0  0  0  0  0  0
   18.9682   -0.6276   15.5044 H   0  0  0  0  0  0  0  0  0  0  0  0
   17.8551   -1.3168   13.4818 H   0  0  0  0  0  0  0  0  0  0  0  0
   16.6720   -3.1945   13.5088 H   0  0  0  0  0  0  0  0  0  0  0  0
  1  2  1  0
  2  3  1  0
  2  4  1  0
  4  5  2  0
  5  6  1  0
  6  7  1  0
  7  8  1  0
  8  9  1  0
  9 10  1  0
 10 11  1  0
 11 12  1  0
 12 13  1  0
 13 14  1  0
 14 15  1  0
 15 16  1  0
 16 17  1  0
 16 18  1  0
 18 19  1  0
 19 20  1  0
  6 21  2  0
 21 22  1  0
 22  4  1  0
 13  8  1  0
 19 13  1  0
  1 23  1  0
  1 24  1  0
  1 25  1  0
  2 26  1  0
  3 27  1  0
  3 28  1  0
  7 29  1  0
  7 30  1  0
  8 31  1  0
  9 32  1  0
  9 33  1  0
 10 34  1  0
 10 35  1  0
 11 36  1  0
 11 37  1  0
 12 38  1  0
 12 39  1  0
 14 40  1  0
 14 41  1  0
 15 42  1  0
 16 43  1  0
 17 44  1  0
 18 45  1  0
 18 46  1  0
 19 47  1  0
 20 48  1  0
M  END
>  <Energy>  (669) 
66.854836378380526

>  <compound_id>  (669) 
1959

>  <target_id>  (669) 
1

>  <reference_id>  (669) 
31

>  <inspiration_ids>  (669) 
[31, 8]

>  <energy_score>  (669) 
-25.950290117590285

>  <distance_score>  (669) 
3.2754404170951457

>  <path>  (669) 
/opt/xchem-fragalysis-2/maxwin/BulkDock/SCRATCH/505732/C1959-P31/C1959-P31.minimised.mol

>  <scratch_subdir>  (669) 
/opt/xchem-fragalysis-2/maxwin/BulkDock/SCRATCH/505732/C1959-P31

>  <fragmenstein_runtime>  (669) 
1.8622496128082275

>  <fragmenstein_outcome>  (669) 
too moved

>  <fragmenstein_mode>  (669) 
expansion

>  <fragmenstein_error>  (669) 


$$$$
C1959-P8
     RDKit          3D

 48 50  0  0  0  0  0  0  0  0999 V2000
   18.5420   -1.1996    9.8339 C   0  0  0  0  0  0  0  0  0  0  0  0
   17.6139   -2.1235   10.6096 C   0  0  0  0  0  0  0  0  0  0  0  0
   18.4102   -2.8969   11.5805 N   0  0  0  0  0  0  0  0  0  0  0  0
   16.4993   -1.3898   11.2786 C   0  0  0  0  0  0  0  0  0  0  0  0
   15.8545   -1.7181   12.3720 N   0  0  0  0  0  0  0  0  0  0  0  0
   14.8947   -0.7519   12.4444 C   0  0  0  0  0  0  0  0  0  0  0  0
   13.8254   -0.7731   13.4684 C   0  0  0  0  0  0  0  0  0  0  0  0
   14.1507   -1.6785   14.6796 C   0  0  0  0  0  0  0  0  0  0  0  0
   12.9529   -2.6243   14.9238 C   0  0  0  0  0  0  0  0  0  0  0  0
   11.7068   -1.9444   15.4266 C   0  0  0  0  0  0  0  0  0  0  0  0
   12.0596   -0.6894   16.1704 C   0  0  0  0  0  0  0  0  0  0  0  0
   13.3586   -0.8876   16.9432 C   0  0  0  0  0  0  0  0  0  0  0  0
   14.5950   -0.9233   15.9934 C   0  0  0  0  0  0  0  0  0  0  0  0
   15.1015    0.5349   15.7267 C   0  0  0  0  0  0  0  0  0  0  0  0
   16.0116    1.1124   16.7114 N   0  0  0  0  0  0  0  0  0  0  0  0
   16.0155    0.4771   17.9971 C   0  0  0  0  0  0  0  0  0  0  0  0
   17.0447    1.0934   18.7413 O   0  0  0  0  0  0  0  0  0  0  0  0
   16.2937   -1.0177   17.9309 C   0  0  0  0  0  0  0  0  0  0  0  0
   15.8250   -1.6567   16.6271 C   0  0  0  0  0  0  0  0  0  0  0  0
   15.5968   -3.0463   16.8614 O   0  0  0  0  0  0  0  0  0  0  0  0
   14.9270    0.1563   11.4624 N   0  0  0  0  0  0  0  0  0  0  0  0
   15.9904   -0.2798   10.6673 O   0  0  0  0  0  0  0  0  0  0  0  0
   19.3502   -1.7642    9.3549 H   0  0  0  0  0  0  0  0  0  0  0  0
   18.0021   -0.6706    9.0403 H   0  0  0  0  0  0  0  0  0  0  0  0
   18.9970   -0.4438   10.4850 H   0  0  0  0  0  0  0  0  0  0  0  0
   17.1598   -2.8271    9.9094 H   0  0  0  0  0  0  0  0  0  0  0  0
   17.7459   -3.3635   12.2079 H   0  0  0  0  0  0  0  0  0  0  0  0
   18.9000   -3.6372   11.0822 H   0  0  0  0  0  0  0  0  0  0  0  0
   12.9364   -1.1578   12.9581 H   0  0  0  0  0  0  0  0  0  0  0  0
   13.5607    0.2481   13.7529 H   0  0  0  0  0  0  0  0  0  0  0  0
   14.9738   -2.3479   14.4061 H   0  0  0  0  0  0  0  0  0  0  0  0
   12.6620   -3.1212   13.9935 H   0  0  0  0  0  0  0  0  0  0  0  0
   13.2430   -3.4030   15.6398 H   0  0  0  0  0  0  0  0  0  0  0  0
   11.0358   -1.6952   14.5984 H   0  0  0  0  0  0  0  0  0  0  0  0
   11.1602   -2.6427   16.0649 H   0  0  0  0  0  0  0  0  0  0  0  0
   12.1527    0.1565   15.4811 H   0  0  0  0  0  0  0  0  0  0  0  0
   11.2269   -0.4151   16.8049 H   0  0  0  0  0  0  0  0  0  0  0  0
   13.3070   -1.8146   17.5264 H   0  0  0  0  0  0  0  0  0  0  0  0
   13.4334   -0.0716   17.6627 H   0  0  0  0  0  0  0  0  0  0  0  0
   15.6538    0.5701   14.7825 H   0  0  0  0  0  0  0  0  0  0  0  0
   14.2465    1.2122   15.6179 H   0  0  0  0  0  0  0  0  0  0  0  0
   15.8152    2.1061   16.8300 H   0  0  0  0  0  0  0  0  0  0  0  0
   15.0916    0.6777   18.5442 H   0  0  0  0  0  0  0  0  0  0  0  0
   17.7380    1.2569   18.0790 H   0  0  0  0  0  0  0  0  0  0  0  0
   15.8101   -1.5050   18.7883 H   0  0  0  0  0  0  0  0  0  0  0  0
   17.3634   -1.2306   18.0618 H   0  0  0  0  0  0  0  0  0  0  0  0
   16.6500   -1.6050   15.9023 H   0  0  0  0  0  0  0  0  0  0  0  0
   16.4616   -3.4471   17.0596 H   0  0  0  0  0  0  0  0  0  0  0  0
  1  2  1  0
  2  3  1  0
  2  4  1  0
  4  5  2  0
  5  6  1  0
  6  7  1  0
  7  8  1  0
  8  9  1  0
  9 10  1  0
 10 11  1  0
 11 12  1  0
 12 13  1  0
 13 14  1  0
 14 15  1  0
 15 16  1  0
 16 17  1  0
 16 18  1  0
 18 19  1  0
 19 20  1  0
  6 21  2  0
 21 22  1  0
 22  4  1  0
 13  8  1  0
 19 13  1  0
  1 23  1  0
  1 24  1  0
  1 25  1  0
  2 26  1  0
  3 27  1  0
  3 28  1  0
  7 29  1  0
  7 30  1  0
  8 31  1  0
  9 32  1  0
  9 33  1  0
 10 34  1  0
 10 35  1  0
 11 36  1  0
 11 37  1  0
 12 38  1  0
 12 39  1  0
 14 40  1  0
 14 41  1  0
 15 42  1  0
 16 43  1  0
 17 44  1  0
 18 45  1  0
 18 46  1  0
 19 47  1  0
 20 48  1  0
M  END
>  <Energy>  (670) 
32.199106825674896

>  <compound_id>  (670) 
1959

>  <target_id>  (670) 
1

>  <reference_id>  (670) 
8

>  <inspiration_ids>  (670) 
[31, 8]

>  <energy_score>  (670) 
-60.606019670294344

>  <distance_score>  (670) 
1.9863572548877126

>  <path>  (670) 
/opt/xchem-fragalysis-2/maxwin/BulkDock/SCRATCH/505732/C1959-P8/C1959-P8.minimised.mol

>  <scratch_subdir>  (670) 
/opt/xchem-fragalysis-2/maxwin/BulkDock/SCRATCH/505732/C1959-P8

>  <fragmenstein_runtime>  (670) 
1.871305227279663

>  <fragmenstein_outcome>  (670) 
too moved

>  <fragmenstein_mode>  (670) 
expansion

>  <fragmenstein_error>  (670) 


$$$$
C1960-P31
     RDKit          3D

 38 39  0  0  0  0  0  0  0  0999 V2000
   17.9374   -1.2687   10.1575 C   0  0  0  0  0  0  0  0  0  0  0  0
   17.7660   -2.4817   11.0673 C   0  0  0  0  0  0  0  0  0  0  0  0
   19.0560   -2.7821   11.7139 N   0  0  0  0  0  0  0  0  0  0  0  0
   16.6920   -2.2674   12.0802 C   0  0  0  0  0  0  0  0  0  0  0  0
   16.7576   -2.3236   13.3951 N   0  0  0  0  0  0  0  0  0  0  0  0
   15.4444   -2.1393   13.7702 C   0  0  0  0  0  0  0  0  0  0  0  0
   15.0573   -1.8854   15.2290 C   0  0  0  0  0  0  0  0  0  0  0  0
   15.8964   -0.8254   15.7256 O   0  0  0  0  0  0  0  0  0  0  0  0
   15.0658   -2.9660   16.3079 C   0  0  0  0  0  0  0  0  0  0  0  0
   16.5226   -3.7868   16.8169 S   0  0  0  0  0  0  0  0  0  0  0  0
   17.9409   -2.7893   16.4769 C   0  0  0  0  0  0  0  0  0  0  0  0
   16.4179   -3.9102   18.2657 O   0  0  0  0  0  0  0  0  0  0  0  0
   16.6067   -5.0120   16.0475 O   0  0  0  0  0  0  0  0  0  0  0  0
   13.5773   -1.4239   15.1162 C   0  0  0  0  0  0  0  0  0  0  0  0
   12.4894   -2.3229   15.2440 C   0  0  0  0  0  0  0  0  0  0  0  0
   11.1763   -1.9166   15.0782 C   0  0  0  0  0  0  0  0  0  0  0  0
   10.9121   -0.5908   14.8046 C   0  0  0  0  0  0  0  0  0  0  0  0
   11.9611    0.3060   14.6319 C   0  0  0  0  0  0  0  0  0  0  0  0
   13.2827   -0.1010   14.7759 C   0  0  0  0  0  0  0  0  0  0  0  0
   14.6284   -1.9075   12.7152 N   0  0  0  0  0  0  0  0  0  0  0  0
   15.4457   -2.0154   11.6056 O   0  0  0  0  0  0  0  0  0  0  0  0
   18.7253   -1.4418    9.4159 H   0  0  0  0  0  0  0  0  0  0  0  0
   17.0125   -1.0535    9.6103 H   0  0  0  0  0  0  0  0  0  0  0  0
   18.1988   -0.3693   10.7274 H   0  0  0  0  0  0  0  0  0  0  0  0
   17.4987   -3.3468   10.4564 H   0  0  0  0  0  0  0  0  0  0  0  0
   19.2761   -2.0125   12.3486 H   0  0  0  0  0  0  0  0  0  0  0  0
   18.9068   -3.5786   12.3379 H   0  0  0  0  0  0  0  0  0  0  0  0
   15.3572   -0.2993   16.3518 H   0  0  0  0  0  0  0  0  0  0  0  0
   14.6778   -2.5200   17.2362 H   0  0  0  0  0  0  0  0  0  0  0  0
   14.4110   -3.8069   16.0789 H   0  0  0  0  0  0  0  0  0  0  0  0
   18.0643   -2.6566   15.4063 H   0  0  0  0  0  0  0  0  0  0  0  0
   17.8435   -1.8341   16.9942 H   0  0  0  0  0  0  0  0  0  0  0  0
   18.8146   -3.3166   16.8690 H   0  0  0  0  0  0  0  0  0  0  0  0
   12.6167   -3.3812   15.4418 H   0  0  0  0  0  0  0  0  0  0  0  0
   10.3718   -2.6430   15.0943 H   0  0  0  0  0  0  0  0  0  0  0  0
    9.8883   -0.2650   14.6310 H   0  0  0  0  0  0  0  0  0  0  0  0
   11.7435    1.3325   14.3466 H   0  0  0  0  0  0  0  0  0  0  0  0
   14.0790    0.6183   14.5941 H   0  0  0  0  0  0  0  0  0  0  0  0
  1  2  1  0
  2  3  1  0
  2  4  1  0
  4  5  2  0
  5  6  1  0
  6  7  1  0
  7  8  1  0
  7  9  1  0
  9 10  1  0
 10 11  1  0
 10 12  2  0
 10 13  2  0
  7 14  1  0
 14 15  2  0
 15 16  1  0
 16 17  2  0
 17 18  1  0
 18 19  2  0
  6 20  2  0
 20 21  1  0
 21  4  1  0
 19 14  1  0
  1 22  1  0
  1 23  1  0
  1 24  1  0
  2 25  1  0
  3 26  1  0
  3 27  1  0
  8 28  1  0
  9 29  1  0
  9 30  1  0
 11 31  1  0
 11 32  1  0
 11 33  1  0
 15 34  1  0
 16 35  1  0
 17 36  1  0
 18 37  1  0
 19 38  1  0
M  END
>  <Energy>  (671) 
84.140213520773514

>  <compound_id>  (671) 
1960

>  <target_id>  (671) 
1

>  <reference_id>  (671) 
31

>  <inspiration_ids>  (671) 
[31, 10]

>  <energy_score>  (671) 
-16.797758903580927

>  <distance_score>  (671) 
1.7653462936973334

>  <path>  (671) 
/opt/xchem-fragalysis-2/maxwin/BulkDock/SCRATCH/505732/C1960-P31/C1960-P31.minimised.mol

>  <scratch_subdir>  (671) 
/opt/xchem-fragalysis-2/maxwin/BulkDock/SCRATCH/505732/C1960-P31

>  <fragmenstein_runtime>  (671) 
3.3655943870544434

>  <fragmenstein_outcome>  (671) 
too moved

>  <fragmenstein_mode>  (671) 
expansion

>  <fragmenstein_error>  (671) 


$$$$
C1960-P10
     RDKit          3D

 38 39  0  0  0  0  0  0  0  0999 V2000
   17.7097   -1.3717   10.3538 C   0  0  0  0  0  0  0  0  0  0  0  0
   17.3075   -2.4982   11.3049 C   0  0  0  0  0  0  0  0  0  0  0  0
   18.5329   -3.1445   11.8133 N   0  0  0  0  0  0  0  0  0  0  0  0
   16.4367   -2.0362   12.4387 C   0  0  0  0  0  0  0  0  0  0  0  0
   16.3705   -2.4857   13.6809 N   0  0  0  0  0  0  0  0  0  0  0  0
   15.3576   -1.7357   14.2248 C   0  0  0  0  0  0  0  0  0  0  0  0
   14.9202   -1.8370   15.7012 C   0  0  0  0  0  0  0  0  0  0  0  0
   15.6179   -0.8713   16.4955 O   0  0  0  0  0  0  0  0  0  0  0  0
   14.9605   -3.1942   16.4033 C   0  0  0  0  0  0  0  0  0  0  0  0
   16.3786   -3.8025   17.2220 S   0  0  0  0  0  0  0  0  0  0  0  0
   17.7946   -3.3398   16.2684 C   0  0  0  0  0  0  0  0  0  0  0  0
   16.4799   -3.1780   18.5267 O   0  0  0  0  0  0  0  0  0  0  0  0
   16.2624   -5.2511   17.1477 O   0  0  0  0  0  0  0  0  0  0  0  0
   13.4161   -1.4780   15.6236 C   0  0  0  0  0  0  0  0  0  0  0  0
   12.4370   -2.4558   15.3287 C   0  0  0  0  0  0  0  0  0  0  0  0
   11.1012   -2.1407   15.1535 C   0  0  0  0  0  0  0  0  0  0  0  0
   10.7021   -0.8287   15.2808 C   0  0  0  0  0  0  0  0  0  0  0  0
   11.6396    0.1511   15.5912 C   0  0  0  0  0  0  0  0  0  0  0  0
   12.9816   -0.1642   15.7816 C   0  0  0  0  0  0  0  0  0  0  0  0
   14.9150   -0.7680   13.3905 N   0  0  0  0  0  0  0  0  0  0  0  0
   15.5738   -1.0136   12.1929 O   0  0  0  0  0  0  0  0  0  0  0  0
   18.3533   -1.7470    9.5501 H   0  0  0  0  0  0  0  0  0  0  0  0
   16.8280   -0.9226    9.8827 H   0  0  0  0  0  0  0  0  0  0  0  0
   18.2483   -0.5734   10.8776 H   0  0  0  0  0  0  0  0  0  0  0  0
   16.7459   -3.2455   10.7372 H   0  0  0  0  0  0  0  0  0  0  0  0
   19.0883   -2.4506   12.3134 H   0  0  0  0  0  0  0  0  0  0  0  0
   18.2426   -3.8122   12.5322 H   0  0  0  0  0  0  0  0  0  0  0  0
   15.7819   -0.1008   15.9221 H   0  0  0  0  0  0  0  0  0  0  0  0
   14.2102   -3.2266   17.2081 H   0  0  0  0  0  0  0  0  0  0  0  0
   14.7100   -3.9911   15.7054 H   0  0  0  0  0  0  0  0  0  0  0  0
   17.7480   -3.8358   15.2989 H   0  0  0  0  0  0  0  0  0  0  0  0
   17.8381   -2.2559   16.1673 H   0  0  0  0  0  0  0  0  0  0  0  0
   18.6823   -3.6870   16.8031 H   0  0  0  0  0  0  0  0  0  0  0  0
   12.6808   -3.5045   15.2295 H   0  0  0  0  0  0  0  0  0  0  0  0
   10.3874   -2.9103   14.8772 H   0  0  0  0  0  0  0  0  0  0  0  0
    9.6665   -0.5566   15.0871 H   0  0  0  0  0  0  0  0  0  0  0  0
   11.3189    1.1882   15.6632 H   0  0  0  0  0  0  0  0  0  0  0  0
   13.6734    0.6422   16.0075 H   0  0  0  0  0  0  0  0  0  0  0  0
  1  2  1  0
  2  3  1  0
  2  4  1  0
  4  5  2  0
  5  6  1  0
  6  7  1  0
  7  8  1  0
  7  9  1  0
  9 10  1  0
 10 11  1  0
 10 12  2  0
 10 13  2  0
  7 14  1  0
 14 15  2  0
 15 16  1  0
 16 17  2  0
 17 18  1  0
 18 19  2  0
  6 20  2  0
 20 21  1  0
 21  4  1  0
 19 14  1  0
  1 22  1  0
  1 23  1  0
  1 24  1  0
  2 25  1  0
  3 26  1  0
  3 27  1  0
  8 28  1  0
  9 29  1  0
  9 30  1  0
 11 31  1  0
 11 32  1  0
 11 33  1  0
 15 34  1  0
 16 35  1  0
 17 36  1  0
 18 37  1  0
 19 38  1  0
M  END
>  <Energy>  (672) 
79.720568771213266

>  <compound_id>  (672) 
1960

>  <target_id>  (672) 
1

>  <reference_id>  (672) 
10

>  <inspiration_ids>  (672) 
[31, 10]

>  <energy_score>  (672) 
-21.21740365314065

>  <distance_score>  (672) 
1.5895336861365652

>  <path>  (672) 
/opt/xchem-fragalysis-2/maxwin/BulkDock/SCRATCH/505732/C1960-P10/C1960-P10.minimised.mol

>  <scratch_subdir>  (672) 
/opt/xchem-fragalysis-2/maxwin/BulkDock/SCRATCH/505732/C1960-P10

>  <fragmenstein_runtime>  (672) 
2.795344114303589

>  <fragmenstein_outcome>  (672) 
too moved

>  <fragmenstein_mode>  (672) 
expansion

>  <fragmenstein_error>  (672) 


$$$$
C1961-P31
     RDKit          3D

 49 51  0  0  0  0  0  0  0  0999 V2000
   18.2576   -1.4243    9.8072 C   0  0  0  0  0  0  0  0  0  0  0  0
   17.9147   -2.0700   11.1489 C   0  0  0  0  0  0  0  0  0  0  0  0
   18.0573   -3.5300   11.0692 N   0  0  0  0  0  0  0  0  0  0  0  0
   16.5892   -1.6133   11.6761 C   0  0  0  0  0  0  0  0  0  0  0  0
   16.2522   -1.3666   12.9182 N   0  0  0  0  0  0  0  0  0  0  0  0
   15.0231   -0.7767   12.7928 C   0  0  0  0  0  0  0  0  0  0  0  0
   14.2962   -0.1670   13.9352 C   0  0  0  0  0  0  0  0  0  0  0  0
   13.7050   -1.2927   14.7484 C   0  0  0  0  0  0  0  0  0  0  0  0
   12.3567   -1.6438   14.5021 C   0  0  0  0  0  0  0  0  0  0  0  0
   11.7275   -2.6606   15.2158 C   0  0  0  0  0  0  0  0  0  0  0  0
   12.4248   -3.3301   16.2089 C   0  0  0  0  0  0  0  0  0  0  0  0
   13.7534   -2.9935   16.4701 C   0  0  0  0  0  0  0  0  0  0  0  0
   14.4281   -2.0024   15.7339 C   0  0  0  0  0  0  0  0  0  0  0  0
   15.8871   -1.7258   16.0398 C   0  0  0  0  0  0  0  0  0  0  0  0
   16.4912   -0.7314   15.6523 O   0  0  0  0  0  0  0  0  0  0  0  0
   16.5679   -2.6978   16.7509 N   0  0  0  0  0  0  0  0  0  0  0  0
   16.6577   -2.6397   18.1960 C   0  0  0  0  0  0  0  0  0  0  0  0
   18.1128   -2.7101   18.6335 C   0  0  0  0  0  0  0  0  0  0  0  0
   18.8269   -3.9212   17.9940 C   0  0  0  0  0  0  0  0  0  0  0  0
   20.3064   -3.9584   18.3821 C   0  0  0  0  0  0  0  0  0  0  0  0
   20.4472   -4.1376   19.7863 O   0  0  0  0  0  0  0  0  0  0  0  0
   18.6727   -3.8940   16.4621 C   0  0  0  0  0  0  0  0  0  0  0  0
   17.2061   -3.7963   16.0535 C   0  0  0  0  0  0  0  0  0  0  0  0
   14.5892   -0.6697   11.5274 N   0  0  0  0  0  0  0  0  0  0  0  0
   15.6209   -1.2490   10.7820 O   0  0  0  0  0  0  0  0  0  0  0  0
   19.2719   -1.6928    9.4907 H   0  0  0  0  0  0  0  0  0  0  0  0
   18.2122   -0.3313    9.8766 H   0  0  0  0  0  0  0  0  0  0  0  0
   17.5685   -1.7334    9.0159 H   0  0  0  0  0  0  0  0  0  0  0  0
   18.6677   -1.7270   11.8701 H   0  0  0  0  0  0  0  0  0  0  0  0
   18.9858   -3.7585   10.7193 H   0  0  0  0  0  0  0  0  0  0  0  0
   17.4082   -3.9045   10.3721 H   0  0  0  0  0  0  0  0  0  0  0  0
   14.9322    0.4945   14.5270 H   0  0  0  0  0  0  0  0  0  0  0  0
   13.4925    0.4838   13.5654 H   0  0  0  0  0  0  0  0  0  0  0  0
   11.7900   -1.1318   13.7247 H   0  0  0  0  0  0  0  0  0  0  0  0
   10.7071   -2.9374   14.9662 H   0  0  0  0  0  0  0  0  0  0  0  0
   11.9626   -4.1498   16.7536 H   0  0  0  0  0  0  0  0  0  0  0  0
   14.2607   -3.5440   17.2483 H   0  0  0  0  0  0  0  0  0  0  0  0
   16.1896   -1.7204   18.5635 H   0  0  0  0  0  0  0  0  0  0  0  0
   16.1034   -3.4892   18.6078 H   0  0  0  0  0  0  0  0  0  0  0  0
   18.1618   -2.7675   19.7267 H   0  0  0  0  0  0  0  0  0  0  0  0
   18.6259   -1.7867   18.3353 H   0  0  0  0  0  0  0  0  0  0  0  0
   18.3448   -4.8302   18.3795 H   0  0  0  0  0  0  0  0  0  0  0  0
   20.8254   -4.7833   17.8825 H   0  0  0  0  0  0  0  0  0  0  0  0
   20.8119   -3.0271   18.1067 H   0  0  0  0  0  0  0  0  0  0  0  0
   20.0797   -5.0109   20.0045 H   0  0  0  0  0  0  0  0  0  0  0  0
   19.2168   -3.0309   16.0568 H   0  0  0  0  0  0  0  0  0  0  0  0
   19.1168   -4.7927   16.0187 H   0  0  0  0  0  0  0  0  0  0  0  0
   17.1170   -3.6567   14.9707 H   0  0  0  0  0  0  0  0  0  0  0  0
   16.6725   -4.7135   16.3212 H   0  0  0  0  0  0  0  0  0  0  0  0
  1  2  1  0
  2  3  1  0
  2  4  1  0
  4  5  2  0
  5  6  1  0
  6  7  1  0
  7  8  1  0
  8  9  2  0
  9 10  1  0
 10 11  2  0
 11 12  1  0
 12 13  2  0
 13 14  1  0
 14 15  2  0
 14 16  1  0
 16 17  1  0
 17 18  1  0
 18 19  1  0
 19 20  1  0
 20 21  1  0
 19 22  1  0
 22 23  1  0
  6 24  2  0
 24 25  1  0
 25  4  1  0
 13  8  1  0
 23 16  1  0
  1 26  1  0
  1 27  1  0
  1 28  1  0
  2 29  1  0
  3 30  1  0
  3 31  1  0
  7 32  1  0
  7 33  1  0
  9 34  1  0
 10 35  1  0
 11 36  1  0
 12 37  1  0
 17 38  1  0
 17 39  1  0
 18 40  1  0
 18 41  1  0
 19 42  1  0
 20 43  1  0
 20 44  1  0
 21 45  1  0
 22 46  1  0
 22 47  1  0
 23 48  1  0
 23 49  1  0
M  END
>  <Energy>  (673) 
94.114115984817218

>  <compound_id>  (673) 
1961

>  <target_id>  (673) 
1

>  <reference_id>  (673) 
31

>  <inspiration_ids>  (673) 
[31, 12]

>  <energy_score>  (673) 
-31.865419224435556

>  <distance_score>  (673) 
0.9643721379468184

>  <path>  (673) 
/opt/xchem-fragalysis-2/maxwin/BulkDock/SCRATCH/505732/C1961-P31/C1961-P31.minimised.mol

>  <scratch_subdir>  (673) 
/opt/xchem-fragalysis-2/maxwin/BulkDock/SCRATCH/505732/C1961-P31

>  <fragmenstein_runtime>  (673) 
1.9065289497375488

>  <fragmenstein_outcome>  (673) 
acceptable

>  <fragmenstein_mode>  (673) 
expansion

>  <fragmenstein_error>  (673) 


$$$$
C1961-P12
     RDKit          3D

 49 51  0  0  0  0  0  0  0  0999 V2000
   18.0332   -1.1054   10.0174 C   0  0  0  0  0  0  0  0  0  0  0  0
   17.7637   -1.8037   11.3513 C   0  0  0  0  0  0  0  0  0  0  0  0
   17.8943   -3.2571   11.1935 N   0  0  0  0  0  0  0  0  0  0  0  0
   16.4526   -1.3806   11.9492 C   0  0  0  0  0  0  0  0  0  0  0  0
   16.1615   -1.0731   13.1951 N   0  0  0  0  0  0  0  0  0  0  0  0
   14.8609   -0.6395   13.1005 C   0  0  0  0  0  0  0  0  0  0  0  0
   14.1054   -0.0562   14.2432 C   0  0  0  0  0  0  0  0  0  0  0  0
   13.4940   -1.2027   15.0188 C   0  0  0  0  0  0  0  0  0  0  0  0
   12.2363   -1.6853   14.5965 C   0  0  0  0  0  0  0  0  0  0  0  0
   11.6342   -2.7798   15.2133 C   0  0  0  0  0  0  0  0  0  0  0  0
   12.2737   -3.4184   16.2655 C   0  0  0  0  0  0  0  0  0  0  0  0
   13.5018   -2.9456   16.7193 C   0  0  0  0  0  0  0  0  0  0  0  0
   14.1237   -1.8419   16.1102 C   0  0  0  0  0  0  0  0  0  0  0  0
   15.4301   -1.3680   16.6648 C   0  0  0  0  0  0  0  0  0  0  0  0
   15.7342   -0.1810   16.6714 O   0  0  0  0  0  0  0  0  0  0  0  0
   16.3173   -2.3429   17.0750 N   0  0  0  0  0  0  0  0  0  0  0  0
   16.3813   -2.7760   18.4572 C   0  0  0  0  0  0  0  0  0  0  0  0
   17.8019   -2.6245   18.9833 C   0  0  0  0  0  0  0  0  0  0  0  0
   18.8145   -3.3359   18.0606 C   0  0  0  0  0  0  0  0  0  0  0  0
   20.2495   -3.1292   18.5500 C   0  0  0  0  0  0  0  0  0  0  0  0
   20.4256   -3.7132   19.8346 O   0  0  0  0  0  0  0  0  0  0  0  0
   18.6626   -2.8418   16.6110 C   0  0  0  0  0  0  0  0  0  0  0  0
   17.2207   -2.9693   16.1278 C   0  0  0  0  0  0  0  0  0  0  0  0
   14.3651   -0.6515   11.8538 N   0  0  0  0  0  0  0  0  0  0  0  0
   15.4083   -1.1743   11.0918 O   0  0  0  0  0  0  0  0  0  0  0  0
   19.0324   -1.3501    9.6399 H   0  0  0  0  0  0  0  0  0  0  0  0
   17.9808   -0.0165   10.1315 H   0  0  0  0  0  0  0  0  0  0  0  0
   17.3061   -1.3910    9.2506 H   0  0  0  0  0  0  0  0  0  0  0  0
   18.5495   -1.4892   12.0490 H   0  0  0  0  0  0  0  0  0  0  0  0
   18.7115   -3.4746   10.6266 H   0  0  0  0  0  0  0  0  0  0  0  0
   17.0836   -3.6099   10.6833 H   0  0  0  0  0  0  0  0  0  0  0  0
   14.7413    0.5973   14.8390 H   0  0  0  0  0  0  0  0  0  0  0  0
   13.3049    0.5981   13.8731 H   0  0  0  0  0  0  0  0  0  0  0  0
   11.7244   -1.2217   13.7527 H   0  0  0  0  0  0  0  0  0  0  0  0
   10.6809   -3.1470   14.8425 H   0  0  0  0  0  0  0  0  0  0  0  0
   11.8265   -4.2958   16.7255 H   0  0  0  0  0  0  0  0  0  0  0  0
   13.9587   -3.4557   17.5593 H   0  0  0  0  0  0  0  0  0  0  0  0
   15.6834   -2.1891   19.0644 H   0  0  0  0  0  0  0  0  0  0  0  0
   16.0726   -3.8267   18.4986 H   0  0  0  0  0  0  0  0  0  0  0  0
   17.8573   -3.0312   19.9994 H   0  0  0  0  0  0  0  0  0  0  0  0
   18.0536   -1.5579   19.0474 H   0  0  0  0  0  0  0  0  0  0  0  0
   18.5901   -4.4111   18.0908 H   0  0  0  0  0  0  0  0  0  0  0  0
   20.9705   -3.5900   17.8661 H   0  0  0  0  0  0  0  0  0  0  0  0
   20.4919   -2.0641   18.6262 H   0  0  0  0  0  0  0  0  0  0  0  0
   20.3070   -4.6735   19.7374 H   0  0  0  0  0  0  0  0  0  0  0  0
   18.9695   -1.7894   16.5513 H   0  0  0  0  0  0  0  0  0  0  0  0
   19.3235   -3.4084   15.9450 H   0  0  0  0  0  0  0  0  0  0  0  0
   17.1096   -2.5118   15.1417 H   0  0  0  0  0  0  0  0  0  0  0  0
   16.9339   -4.0239   16.0436 H   0  0  0  0  0  0  0  0  0  0  0  0
  1  2  1  0
  2  3  1  0
  2  4  1  0
  4  5  2  0
  5  6  1  0
  6  7  1  0
  7  8  1  0
  8  9  2  0
  9 10  1  0
 10 11  2  0
 11 12  1  0
 12 13  2  0
 13 14  1  0
 14 15  2  0
 14 16  1  0
 16 17  1  0
 17 18  1  0
 18 19  1  0
 19 20  1  0
 20 21  1  0
 19 22  1  0
 22 23  1  0
  6 24  2  0
 24 25  1  0
 25  4  1  0
 13  8  1  0
 23 16  1  0
  1 26  1  0
  1 27  1  0
  1 28  1  0
  2 29  1  0
  3 30  1  0
  3 31  1  0
  7 32  1  0
  7 33  1  0
  9 34  1  0
 10 35  1  0
 11 36  1  0
 12 37  1  0
 17 38  1  0
 17 39  1  0
 18 40  1  0
 18 41  1  0
 19 42  1  0
 20 43  1  0
 20 44  1  0
 21 45  1  0
 22 46  1  0
 22 47  1  0
 23 48  1  0
 23 49  1  0
M  END
>  <Energy>  (674) 
90.721121001913914

>  <compound_id>  (674) 
1961

>  <target_id>  (674) 
1

>  <reference_id>  (674) 
12

>  <inspiration_ids>  (674) 
[31, 12]

>  <energy_score>  (674) 
-35.25841420733798

>  <distance_score>  (674) 
0.8787507968638704

>  <path>  (674) 
/opt/xchem-fragalysis-2/maxwin/BulkDock/SCRATCH/505732/C1961-P12/C1961-P12.minimised.mol

>  <scratch_subdir>  (674) 
/opt/xchem-fragalysis-2/maxwin/BulkDock/SCRATCH/505732/C1961-P12

>  <fragmenstein_runtime>  (674) 
1.524946689605713

>  <fragmenstein_outcome>  (674) 
acceptable

>  <fragmenstein_mode>  (674) 
expansion

>  <fragmenstein_error>  (674) 


$$$$
C1963-P31
     RDKit          3D

 48 49  0  0  0  0  0  0  0  0999 V2000
   18.1913   -1.4703    9.7988 C   0  0  0  0  0  0  0  0  0  0  0  0
   17.8694   -1.8462   11.2376 C   0  0  0  0  0  0  0  0  0  0  0  0
   18.0387   -3.2916   11.4358 N   0  0  0  0  0  0  0  0  0  0  0  0
   16.5319   -1.3707   11.7082 C   0  0  0  0  0  0  0  0  0  0  0  0
   16.0725   -1.3984   12.9366 N   0  0  0  0  0  0  0  0  0  0  0  0
   14.9565   -0.6047   12.8542 C   0  0  0  0  0  0  0  0  0  0  0  0
   14.2186   -0.0953   14.0383 C   0  0  0  0  0  0  0  0  0  0  0  0
   13.6461   -1.2674   14.7842 C   0  0  0  0  0  0  0  0  0  0  0  0
   12.2888   -1.5624   14.4843 C   0  0  0  0  0  0  0  0  0  0  0  0
   11.5940   -2.5912   15.1105 C   0  0  0  0  0  0  0  0  0  0  0  0
   12.2334   -3.3439   16.0743 C   0  0  0  0  0  0  0  0  0  0  0  0
   13.5669   -3.0781   16.3759 C   0  0  0  0  0  0  0  0  0  0  0  0
   14.3111   -2.0689   15.7277 C   0  0  0  0  0  0  0  0  0  0  0  0
   15.6588   -2.0571   16.1468 N   0  0  0  0  0  0  0  0  0  0  0  0
   16.8104   -1.0465   15.8275 C   0  0  0  0  0  0  0  0  0  0  0  0
   16.7886   -0.0621   15.2489 O   0  0  0  0  0  0  0  0  0  0  0  0
   18.0013   -1.8030   16.4752 N   0  0  0  0  0  0  0  0  0  0  0  0
   19.4347   -1.5174   16.4426 C   0  0  0  0  0  0  0  0  0  0  0  0
   19.7076   -0.2661   17.2898 C   0  0  0  0  0  0  0  0  0  0  0  0
   20.1797   -2.7446   17.0252 C   0  0  0  0  0  0  0  0  0  0  0  0
   19.6384   -3.1386   18.2892 O   0  0  0  0  0  0  0  0  0  0  0  0
   19.9177   -1.3089   14.9820 C   0  0  0  0  0  0  0  0  0  0  0  0
   19.4990   -0.0741   14.4065 O   0  0  0  0  0  0  0  0  0  0  0  0
   14.6709   -0.1808   11.6108 N   0  0  0  0  0  0  0  0  0  0  0  0
   15.7179   -0.6996   10.8436 O   0  0  0  0  0  0  0  0  0  0  0  0
   19.2012   -1.7953    9.5239 H   0  0  0  0  0  0  0  0  0  0  0  0
   17.4906   -1.9235    9.0951 H   0  0  0  0  0  0  0  0  0  0  0  0
   18.1466   -0.3843    9.6575 H   0  0  0  0  0  0  0  0  0  0  0  0
   18.6088   -1.3481   11.8778 H   0  0  0  0  0  0  0  0  0  0  0  0
   19.0303   -3.5079   11.4916 H   0  0  0  0  0  0  0  0  0  0  0  0
   17.6272   -3.5241   12.3456 H   0  0  0  0  0  0  0  0  0  0  0  0
   13.4020    0.5573   13.6973 H   0  0  0  0  0  0  0  0  0  0  0  0
   14.7998    0.5607   14.6813 H   0  0  0  0  0  0  0  0  0  0  0  0
   11.7565   -0.9841   13.7282 H   0  0  0  0  0  0  0  0  0  0  0  0
   10.5697   -2.8055   14.8208 H   0  0  0  0  0  0  0  0  0  0  0  0
   11.7282   -4.1743   16.5599 H   0  0  0  0  0  0  0  0  0  0  0  0
   14.0356   -3.7001   17.1292 H   0  0  0  0  0  0  0  0  0  0  0  0
   16.0348   -2.8628   16.6070 H   0  0  0  0  0  0  0  0  0  0  0  0
   17.6591   -2.6039   16.9808 H   0  0  0  0  0  0  0  0  0  0  0  0
   20.7778   -0.0338   17.3150 H   0  0  0  0  0  0  0  0  0  0  0  0
   19.3653   -0.3970   18.3223 H   0  0  0  0  0  0  0  0  0  0  0  0
   19.1823    0.6115   16.8968 H   0  0  0  0  0  0  0  0  0  0  0  0
   21.2508   -2.5498   17.1480 H   0  0  0  0  0  0  0  0  0  0  0  0
   20.0708   -3.6074   16.3583 H   0  0  0  0  0  0  0  0  0  0  0  0
   19.8813   -2.4564   18.9392 H   0  0  0  0  0  0  0  0  0  0  0  0
   19.5605   -2.1178   14.3345 H   0  0  0  0  0  0  0  0  0  0  0  0
   21.0126   -1.3144   14.9428 H   0  0  0  0  0  0  0  0  0  0  0  0
   18.5286    0.0048   14.5406 H   0  0  0  0  0  0  0  0  0  0  0  0
  1  2  1  0
  2  3  1  0
  2  4  1  0
  4  5  2  0
  5  6  1  0
  6  7  1  0
  7  8  1  0
  8  9  2  0
  9 10  1  0
 10 11  2  0
 11 12  1  0
 12 13  2  0
 13 14  1  0
 14 15  1  0
 15 16  2  0
 15 17  1  0
 17 18  1  0
 18 19  1  0
 18 20  1  0
 20 21  1  0
 18 22  1  0
 22 23  1  0
  6 24  2  0
 24 25  1  0
 25  4  1  0
 13  8  1  0
  1 26  1  0
  1 27  1  0
  1 28  1  0
  2 29  1  0
  3 30  1  0
  3 31  1  0
  7 32  1  0
  7 33  1  0
  9 34  1  0
 10 35  1  0
 11 36  1  0
 12 37  1  0
 14 38  1  0
 17 39  1  0
 19 40  1  0
 19 41  1  0
 19 42  1  0
 20 43  1  0
 20 44  1  0
 21 45  1  0
 22 46  1  0
 22 47  1  0
 23 48  1  0
M  END
>  <Energy>  (675) 
68.24298605828325

>  <compound_id>  (675) 
1963

>  <target_id>  (675) 
1

>  <reference_id>  (675) 
31

>  <inspiration_ids>  (675) 
[31, 20]

>  <energy_score>  (675) 
-48.49120959483051

>  <distance_score>  (675) 
0.7911180539375506

>  <path>  (675) 
/opt/xchem-fragalysis-2/maxwin/BulkDock/SCRATCH/505732/C1963-P31/C1963-P31.minimised.mol

>  <scratch_subdir>  (675) 
/opt/xchem-fragalysis-2/maxwin/BulkDock/SCRATCH/505732/C1963-P31

>  <fragmenstein_runtime>  (675) 
2.4836299419403076

>  <fragmenstein_outcome>  (675) 
acceptable

>  <fragmenstein_mode>  (675) 
expansion

>  <fragmenstein_error>  (675) 


$$$$
C1963-P20
     RDKit          3D

 48 49  0  0  0  0  0  0  0  0999 V2000
   18.0974   -1.2538   10.0539 C   0  0  0  0  0  0  0  0  0  0  0  0
   17.7561   -1.7826   11.4426 C   0  0  0  0  0  0  0  0  0  0  0  0
   17.8488   -3.2465   11.4530 N   0  0  0  0  0  0  0  0  0  0  0  0
   16.4409   -1.2898   11.9643 C   0  0  0  0  0  0  0  0  0  0  0  0
   16.0471   -1.2040   13.2168 N   0  0  0  0  0  0  0  0  0  0  0  0
   14.8496   -0.5365   13.1044 C   0  0  0  0  0  0  0  0  0  0  0  0
   14.0478   -0.0435   14.2575 C   0  0  0  0  0  0  0  0  0  0  0  0
   13.5642   -1.2358   15.0400 C   0  0  0  0  0  0  0  0  0  0  0  0
   12.2880   -1.7207   14.6435 C   0  0  0  0  0  0  0  0  0  0  0  0
   11.6915   -2.8266   15.2376 C   0  0  0  0  0  0  0  0  0  0  0  0
   12.3557   -3.4858   16.2526 C   0  0  0  0  0  0  0  0  0  0  0  0
   13.6065   -3.0278   16.6636 C   0  0  0  0  0  0  0  0  0  0  0  0
   14.2383   -1.9057   16.0765 C   0  0  0  0  0  0  0  0  0  0  0  0
   15.5008   -1.6535   16.6539 N   0  0  0  0  0  0  0  0  0  0  0  0
   16.5447   -0.5302   16.3532 C   0  0  0  0  0  0  0  0  0  0  0  0
   16.4778    0.3704   15.6559 O   0  0  0  0  0  0  0  0  0  0  0  0
   17.6904   -0.9853   17.2953 N   0  0  0  0  0  0  0  0  0  0  0  0
   19.0388   -0.4429   17.4803 C   0  0  0  0  0  0  0  0  0  0  0  0
   18.9330    0.8515   18.3002 C   0  0  0  0  0  0  0  0  0  0  0  0
   19.8794   -1.5006   18.2395 C   0  0  0  0  0  0  0  0  0  0  0  0
   19.1913   -1.9908   19.3932 O   0  0  0  0  0  0  0  0  0  0  0  0
   19.7255   -0.1723   16.1144 C   0  0  0  0  0  0  0  0  0  0  0  0
   19.2149    0.9711   15.4350 O   0  0  0  0  0  0  0  0  0  0  0  0
   14.4904   -0.2589   11.8395 N   0  0  0  0  0  0  0  0  0  0  0  0
   15.5390   -0.7760   11.0796 O   0  0  0  0  0  0  0  0  0  0  0  0
   19.0947   -1.5838    9.7417 H   0  0  0  0  0  0  0  0  0  0  0  0
   17.3810   -1.5924    9.3003 H   0  0  0  0  0  0  0  0  0  0  0  0
   18.0940   -0.1578   10.0428 H   0  0  0  0  0  0  0  0  0  0  0  0
   18.5199   -1.4062   12.1358 H   0  0  0  0  0  0  0  0  0  0  0  0
   18.8284   -3.5202   11.4545 H   0  0  0  0  0  0  0  0  0  0  0  0
   17.4432   -3.5771   12.3343 H   0  0  0  0  0  0  0  0  0  0  0  0
   13.1785    0.5111   13.8740 H   0  0  0  0  0  0  0  0  0  0  0  0
   14.5414    0.6985   14.8759 H   0  0  0  0  0  0  0  0  0  0  0  0
   11.7459   -1.2355   13.8298 H   0  0  0  0  0  0  0  0  0  0  0  0
   10.7273   -3.1774   14.8810 H   0  0  0  0  0  0  0  0  0  0  0  0
   11.9193   -4.3687   16.7110 H   0  0  0  0  0  0  0  0  0  0  0  0
   14.0952   -3.5756   17.4672 H   0  0  0  0  0  0  0  0  0  0  0  0
   15.9101   -2.3426   17.2576 H   0  0  0  0  0  0  0  0  0  0  0  0
   17.4553   -1.8723   17.7105 H   0  0  0  0  0  0  0  0  0  0  0  0
   19.9226    1.2843   18.4824 H   0  0  0  0  0  0  0  0  0  0  0  0
   18.4576    0.6745   19.2713 H   0  0  0  0  0  0  0  0  0  0  0  0
   18.3242    1.6053   17.7884 H   0  0  0  0  0  0  0  0  0  0  0  0
   20.8512   -1.1022   18.5515 H   0  0  0  0  0  0  0  0  0  0  0  0
   20.0646   -2.3696   17.5979 H   0  0  0  0  0  0  0  0  0  0  0  0
   19.1701   -1.2732   20.0509 H   0  0  0  0  0  0  0  0  0  0  0  0
   19.6232   -1.0352   15.4463 H   0  0  0  0  0  0  0  0  0  0  0  0
   20.7964    0.0068   16.2608 H   0  0  0  0  0  0  0  0  0  0  0  0
   18.2442    0.8561   15.3428 H   0  0  0  0  0  0  0  0  0  0  0  0
  1  2  1  0
  2  3  1  0
  2  4  1  0
  4  5  2  0
  5  6  1  0
  6  7  1  0
  7  8  1  0
  8  9  2  0
  9 10  1  0
 10 11  2  0
 11 12  1  0
 12 13  2  0
 13 14  1  0
 14 15  1  0
 15 16  2  0
 15 17  1  0
 17 18  1  0
 18 19  1  0
 18 20  1  0
 20 21  1  0
 18 22  1  0
 22 23  1  0
  6 24  2  0
 24 25  1  0
 25  4  1  0
 13  8  1  0
  1 26  1  0
  1 27  1  0
  1 28  1  0
  2 29  1  0
  3 30  1  0
  3 31  1  0
  7 32  1  0
  7 33  1  0
  9 34  1  0
 10 35  1  0
 11 36  1  0
 12 37  1  0
 14 38  1  0
 17 39  1  0
 19 40  1  0
 19 41  1  0
 19 42  1  0
 20 43  1  0
 20 44  1  0
 21 45  1  0
 22 46  1  0
 22 47  1  0
 23 48  1  0
M  END
>  <Energy>  (676) 
67.112003082837376

>  <compound_id>  (676) 
1963

>  <target_id>  (676) 
1

>  <reference_id>  (676) 
20

>  <inspiration_ids>  (676) 
[31, 20]

>  <energy_score>  (676) 
-49.622192570274365

>  <distance_score>  (676) 
0.8030068304010115

>  <path>  (676) 
/opt/xchem-fragalysis-2/maxwin/BulkDock/SCRATCH/505732/C1963-P20/C1963-P20.minimised.mol

>  <scratch_subdir>  (676) 
/opt/xchem-fragalysis-2/maxwin/BulkDock/SCRATCH/505732/C1963-P20

>  <fragmenstein_runtime>  (676) 
1.9894864559173584

>  <fragmenstein_outcome>  (676) 
acceptable

>  <fragmenstein_mode>  (676) 
expansion

>  <fragmenstein_error>  (676) 


$$$$
C1964-P31
     RDKit          3D

 35 36  0  0  0  0  0  0  0  0999 V2000
   18.1071   -1.5803    9.7804 C   0  0  0  0  0  0  0  0  0  0  0  0
   17.5041   -2.3757   10.9338 C   0  0  0  0  0  0  0  0  0  0  0  0
   18.6013   -2.8243   11.8088 N   0  0  0  0  0  0  0  0  0  0  0  0
   16.4817   -1.5799   11.6768 C   0  0  0  0  0  0  0  0  0  0  0  0
   16.3693   -1.3761   12.9684 N   0  0  0  0  0  0  0  0  0  0  0  0
   15.2164   -0.6445   13.0455 C   0  0  0  0  0  0  0  0  0  0  0  0
   14.6889   -0.1511   14.3338 C   0  0  0  0  0  0  0  0  0  0  0  0
   13.8579   -1.2723   14.9101 C   0  0  0  0  0  0  0  0  0  0  0  0
   12.5281   -1.4312   14.4724 C   0  0  0  0  0  0  0  0  0  0  0  0
   11.7241   -2.4226   15.0185 C   0  0  0  0  0  0  0  0  0  0  0  0
   12.2435   -3.2382   16.0098 C   0  0  0  0  0  0  0  0  0  0  0  0
   11.4862   -4.2118   16.5180 F   0  0  0  0  0  0  0  0  0  0  0  0
   13.5449   -3.0984   16.4664 C   0  0  0  0  0  0  0  0  0  0  0  0
   14.3695   -2.1324   15.9047 C   0  0  0  0  0  0  0  0  0  0  0  0
   15.6959   -2.0246   16.2209 O   0  0  0  0  0  0  0  0  0  0  0  0
   16.0525   -2.1214   17.5935 C   0  0  0  0  0  0  0  0  0  0  0  0
   16.6849   -3.4468   17.9613 C   0  0  0  0  0  0  0  0  0  0  0  0
   16.4896   -4.5310   17.4359 O   0  0  0  0  0  0  0  0  0  0  0  0
   17.4825   -3.3624   19.0480 O   0  0  0  0  0  0  0  0  0  0  0  0
   14.6462   -0.3575   11.8644 N   0  0  0  0  0  0  0  0  0  0  0  0
   15.4768   -1.0083   10.9482 O   0  0  0  0  0  0  0  0  0  0  0  0
   17.3356   -1.2562    9.0734 H   0  0  0  0  0  0  0  0  0  0  0  0
   18.6211   -0.6796   10.1372 H   0  0  0  0  0  0  0  0  0  0  0  0
   18.8308   -2.1847    9.2218 H   0  0  0  0  0  0  0  0  0  0  0  0
   17.0044   -3.2662   10.5492 H   0  0  0  0  0  0  0  0  0  0  0  0
   19.0455   -3.6405   11.3951 H   0  0  0  0  0  0  0  0  0  0  0  0
   18.1808   -3.1356   12.6903 H   0  0  0  0  0  0  0  0  0  0  0  0
   14.0721    0.7456   14.2003 H   0  0  0  0  0  0  0  0  0  0  0  0
   15.5115    0.1359   14.9967 H   0  0  0  0  0  0  0  0  0  0  0  0
   12.1199   -0.7912   13.6919 H   0  0  0  0  0  0  0  0  0  0  0  0
   10.7114   -2.5760   14.6630 H   0  0  0  0  0  0  0  0  0  0  0  0
   13.8967   -3.7953   17.2089 H   0  0  0  0  0  0  0  0  0  0  0  0
   15.2092   -1.9450   18.2716 H   0  0  0  0  0  0  0  0  0  0  0  0
   16.7980   -1.3384   17.7719 H   0  0  0  0  0  0  0  0  0  0  0  0
   17.8203   -4.2764   19.1656 H   0  0  0  0  0  0  0  0  0  0  0  0
  1  2  1  0
  2  3  1  0
  2  4  1  0
  4  5  2  0
  5  6  1  0
  6  7  1  0
  7  8  1  0
  8  9  2  0
  9 10  1  0
 10 11  2  0
 11 12  1  0
 11 13  1  0
 13 14  2  0
 14 15  1  0
 15 16  1  0
 16 17  1  0
 17 18  2  0
 17 19  1  0
  6 20  2  0
 20 21  1  0
 21  4  1  0
 14  8  1  0
  1 22  1  0
  1 23  1  0
  1 24  1  0
  2 25  1  0
  3 26  1  0
  3 27  1  0
  7 28  1  0
  7 29  1  0
  9 30  1  0
 10 31  1  0
 13 32  1  0
 16 33  1  0
 16 34  1  0
 19 35  1  0
M  END
>  <Energy>  (677) 
69.082307910344113

>  <compound_id>  (677) 
1964

>  <target_id>  (677) 
1

>  <reference_id>  (677) 
31

>  <inspiration_ids>  (677) 
[31, 23]

>  <energy_score>  (677) 
-42.42190319723068

>  <distance_score>  (677) 
1.1195997872243328

>  <path>  (677) 
/opt/xchem-fragalysis-2/maxwin/BulkDock/SCRATCH/505732/C1964-P31/C1964-P31.minimised.mol

>  <scratch_subdir>  (677) 
/opt/xchem-fragalysis-2/maxwin/BulkDock/SCRATCH/505732/C1964-P31

>  <fragmenstein_runtime>  (677) 
1.431777000427246

>  <fragmenstein_outcome>  (677) 
too moved

>  <fragmenstein_mode>  (677) 
expansion

>  <fragmenstein_error>  (677) 


$$$$
C1964-P23
     RDKit          3D

 35 36  0  0  0  0  0  0  0  0999 V2000
   18.0069   -1.5855    9.8682 C   0  0  0  0  0  0  0  0  0  0  0  0
   17.3954   -2.3732   11.0238 C   0  0  0  0  0  0  0  0  0  0  0  0
   18.4906   -2.8520   11.8847 N   0  0  0  0  0  0  0  0  0  0  0  0
   16.3976   -1.5569   11.7834 C   0  0  0  0  0  0  0  0  0  0  0  0
   16.2808   -1.3719   13.0797 N   0  0  0  0  0  0  0  0  0  0  0  0
   15.1551   -0.5952   13.1614 C   0  0  0  0  0  0  0  0  0  0  0  0
   14.6139   -0.1110   14.4535 C   0  0  0  0  0  0  0  0  0  0  0  0
   13.8454   -1.2713   15.0484 C   0  0  0  0  0  0  0  0  0  0  0  0
   12.5618   -1.5578   14.5372 C   0  0  0  0  0  0  0  0  0  0  0  0
   11.8131   -2.6034   15.0583 C   0  0  0  0  0  0  0  0  0  0  0  0
   12.3475   -3.3609   16.0872 C   0  0  0  0  0  0  0  0  0  0  0  0
   11.6450   -4.3835   16.5791 F   0  0  0  0  0  0  0  0  0  0  0  0
   13.6057   -3.1019   16.6161 C   0  0  0  0  0  0  0  0  0  0  0  0
   14.3685   -2.0546   16.1033 C   0  0  0  0  0  0  0  0  0  0  0  0
   15.6133   -1.7148   16.5558 O   0  0  0  0  0  0  0  0  0  0  0  0
   16.1118   -2.3138   17.7423 C   0  0  0  0  0  0  0  0  0  0  0  0
   16.7003   -3.7129   17.6059 C   0  0  0  0  0  0  0  0  0  0  0  0
   16.7147   -4.4357   16.6250 O   0  0  0  0  0  0  0  0  0  0  0  0
   17.2346   -4.1484   18.7692 O   0  0  0  0  0  0  0  0  0  0  0  0
   14.6019   -0.2783   11.9801 N   0  0  0  0  0  0  0  0  0  0  0  0
   15.4164   -0.9400   11.0596 O   0  0  0  0  0  0  0  0  0  0  0  0
   17.2368   -1.2471    9.1662 H   0  0  0  0  0  0  0  0  0  0  0  0
   18.5389   -0.6952   10.2241 H   0  0  0  0  0  0  0  0  0  0  0  0
   18.7160   -2.2017    9.3037 H   0  0  0  0  0  0  0  0  0  0  0  0
   16.8721   -3.2500   10.6333 H   0  0  0  0  0  0  0  0  0  0  0  0
   18.9441   -3.6473   11.4425 H   0  0  0  0  0  0  0  0  0  0  0  0
   18.0704   -3.1941   12.7546 H   0  0  0  0  0  0  0  0  0  0  0  0
   13.9452    0.7471   14.3150 H   0  0  0  0  0  0  0  0  0  0  0  0
   15.4238    0.2289   15.1067 H   0  0  0  0  0  0  0  0  0  0  0  0
   12.1431   -0.9631   13.7256 H   0  0  0  0  0  0  0  0  0  0  0  0
   10.8346   -2.8398   14.6547 H   0  0  0  0  0  0  0  0  0  0  0  0
   13.9509   -3.7563   17.4060 H   0  0  0  0  0  0  0  0  0  0  0  0
   15.3521   -2.3070   18.5331 H   0  0  0  0  0  0  0  0  0  0  0  0
   16.9303   -1.6679   18.0808 H   0  0  0  0  0  0  0  0  0  0  0  0
   17.5862   -5.0380   18.5488 H   0  0  0  0  0  0  0  0  0  0  0  0
  1  2  1  0
  2  3  1  0
  2  4  1  0
  4  5  2  0
  5  6  1  0
  6  7  1  0
  7  8  1  0
  8  9  2  0
  9 10  1  0
 10 11  2  0
 11 12  1  0
 11 13  1  0
 13 14  2  0
 14 15  1  0
 15 16  1  0
 16 17  1  0
 17 18  2  0
 17 19  1  0
  6 20  2  0
 20 21  1  0
 21  4  1  0
 14  8  1  0
  1 22  1  0
  1 23  1  0
  1 24  1  0
  2 25  1  0
  3 26  1  0
  3 27  1  0
  7 28  1  0
  7 29  1  0
  9 30  1  0
 10 31  1  0
 13 32  1  0
 16 33  1  0
 16 34  1  0
 19 35  1  0
M  END
>  <Energy>  (678) 
67.495552606115552

>  <compound_id>  (678) 
1964

>  <target_id>  (678) 
1

>  <reference_id>  (678) 
23

>  <inspiration_ids>  (678) 
[31, 23]

>  <energy_score>  (678) 
-44.00865850145962

>  <distance_score>  (678) 
0.91776163684464

>  <path>  (678) 
/opt/xchem-fragalysis-2/maxwin/BulkDock/SCRATCH/505732/C1964-P23/C1964-P23.minimised.mol

>  <scratch_subdir>  (678) 
/opt/xchem-fragalysis-2/maxwin/BulkDock/SCRATCH/505732/C1964-P23

>  <fragmenstein_runtime>  (678) 
1.7404358386993408

>  <fragmenstein_outcome>  (678) 
acceptable

>  <fragmenstein_mode>  (678) 
expansion

>  <fragmenstein_error>  (678) 


$$$$
C1965-P31
     RDKit          3D

 44 46  0  0  0  0  0  0  0  0999 V2000
   18.1749   -1.4975    9.8554 C   0  0  0  0  0  0  0  0  0  0  0  0
   17.5631   -2.4130   10.9105 C   0  0  0  0  0  0  0  0  0  0  0  0
   18.6348   -2.9258   11.7886 N   0  0  0  0  0  0  0  0  0  0  0  0
   16.5126   -1.7031   11.6931 C   0  0  0  0  0  0  0  0  0  0  0  0
   16.5149   -1.4000   12.9687 N   0  0  0  0  0  0  0  0  0  0  0  0
   15.2896   -0.8042   13.1268 C   0  0  0  0  0  0  0  0  0  0  0  0
   14.8601   -0.3320   14.4757 C   0  0  0  0  0  0  0  0  0  0  0  0
   13.8213   -1.3359   14.9648 C   0  0  0  0  0  0  0  0  0  0  0  0
   12.5204   -1.4091   14.4495 C   0  0  0  0  0  0  0  0  0  0  0  0
   11.6272   -2.3679   14.9318 C   0  0  0  0  0  0  0  0  0  0  0  0
   12.0101   -3.2458   15.9387 C   0  0  0  0  0  0  0  0  0  0  0  0
   13.2778   -3.1594   16.4910 C   0  0  0  0  0  0  0  0  0  0  0  0
   14.1831   -2.2283   15.9951 C   0  0  0  0  0  0  0  0  0  0  0  0
   14.4974    1.1771   14.6545 C   0  0  0  0  0  0  0  0  0  0  0  0
   14.2540    1.9640   13.3690 C   0  0  0  0  0  0  0  0  0  0  0  0
   13.9146    3.4253   13.6529 C   0  0  0  0  0  0  0  0  0  0  0  0
   13.7561    4.1407   12.4308 O   0  0  0  0  0  0  0  0  0  0  0  0
   15.0044    4.0729   14.4932 C   0  0  0  0  0  0  0  0  0  0  0  0
   15.2452    3.2523   15.7494 C   0  0  0  0  0  0  0  0  0  0  0  0
   15.5706    1.8643   15.4274 N   0  0  0  0  0  0  0  0  0  0  0  0
   14.5717   -0.6975   11.9959 N   0  0  0  0  0  0  0  0  0  0  0  0
   15.3854   -1.3055   11.0380 O   0  0  0  0  0  0  0  0  0  0  0  0
   17.4118   -1.1373    9.1562 H   0  0  0  0  0  0  0  0  0  0  0  0
   18.6470   -0.6171   10.3074 H   0  0  0  0  0  0  0  0  0  0  0  0
   18.9351   -2.0268    9.2700 H   0  0  0  0  0  0  0  0  0  0  0  0
   17.1074   -3.2740   10.4242 H   0  0  0  0  0  0  0  0  0  0  0  0
   19.0213   -2.1303   12.3013 H   0  0  0  0  0  0  0  0  0  0  0  0
   18.1765   -3.4759   12.5216 H   0  0  0  0  0  0  0  0  0  0  0  0
   15.7431   -0.5027   15.1115 H   0  0  0  0  0  0  0  0  0  0  0  0
   12.1954   -0.7488   13.6485 H   0  0  0  0  0  0  0  0  0  0  0  0
   10.6346   -2.4498   14.5025 H   0  0  0  0  0  0  0  0  0  0  0  0
   11.3368   -4.0284   16.2711 H   0  0  0  0  0  0  0  0  0  0  0  0
   13.5649   -3.8401   17.2817 H   0  0  0  0  0  0  0  0  0  0  0  0
   15.1836   -2.1957   16.4234 H   0  0  0  0  0  0  0  0  0  0  0  0
   13.5789    1.2379   15.2518 H   0  0  0  0  0  0  0  0  0  0  0  0
   15.1314    1.9267   12.7096 H   0  0  0  0  0  0  0  0  0  0  0  0
   13.4216    1.5282   12.8032 H   0  0  0  0  0  0  0  0  0  0  0  0
   12.9569    3.4829   14.1837 H   0  0  0  0  0  0  0  0  0  0  0  0
   14.5813    4.0413   11.9239 H   0  0  0  0  0  0  0  0  0  0  0  0
   14.7168    5.0981   14.7549 H   0  0  0  0  0  0  0  0  0  0  0  0
   15.9303    4.1609   13.9098 H   0  0  0  0  0  0  0  0  0  0  0  0
   16.0777    3.6887   16.3117 H   0  0  0  0  0  0  0  0  0  0  0  0
   14.3640    3.2962   16.3994 H   0  0  0  0  0  0  0  0  0  0  0  0
   15.6897    1.3341   16.3012 H   0  0  0  0  0  0  0  0  0  0  0  0
  1  2  1  0
  2  3  1  0
  2  4  1  0
  4  5  2  0
  5  6  1  0
  6  7  1  0
  7  8  1  0
  8  9  2  0
  9 10  1  0
 10 11  2  0
 11 12  1  0
 12 13  2  0
  7 14  1  0
 14 15  1  0
 15 16  1  0
 16 17  1  0
 16 18  1  0
 18 19  1  0
 19 20  1  0
  6 21  2  0
 21 22  1  0
 22  4  1  0
 13  8  1  0
 20 14  1  0
  1 23  1  0
  1 24  1  0
  1 25  1  0
  2 26  1  0
  3 27  1  0
  3 28  1  0
  7 29  1  0
  9 30  1  0
 10 31  1  0
 11 32  1  0
 12 33  1  0
 13 34  1  0
 14 35  1  0
 15 36  1  0
 15 37  1  0
 16 38  1  0
 17 39  1  0
 18 40  1  0
 18 41  1  0
 19 42  1  0
 19 43  1  0
 20 44  1  0
M  END
>  <Energy>  (679) 
97.718862800160863

>  <compound_id>  (679) 
1965

>  <target_id>  (679) 
1

>  <reference_id>  (679) 
31

>  <inspiration_ids>  (679) 
[31, 26]

>  <energy_score>  (679) 
-46.0304024372343

>  <distance_score>  (679) 
1.1348910537764472

>  <path>  (679) 
/opt/xchem-fragalysis-2/maxwin/BulkDock/SCRATCH/505732/C1965-P31/C1965-P31.minimised.mol

>  <scratch_subdir>  (679) 
/opt/xchem-fragalysis-2/maxwin/BulkDock/SCRATCH/505732/C1965-P31

>  <fragmenstein_runtime>  (679) 
3.395782232284546

>  <fragmenstein_outcome>  (679) 
too moved

>  <fragmenstein_mode>  (679) 
expansion

>  <fragmenstein_error>  (679) 


$$$$
C1965-P26
     RDKit          3D

 44 46  0  0  0  0  0  0  0  0999 V2000
   17.6885   -1.2975    9.8087 C   0  0  0  0  0  0  0  0  0  0  0  0
   17.1030   -2.1980   10.8908 C   0  0  0  0  0  0  0  0  0  0  0  0
   18.2129   -2.9161   11.5441 N   0  0  0  0  0  0  0  0  0  0  0  0
   16.2691   -1.4351   11.8711 C   0  0  0  0  0  0  0  0  0  0  0  0
   16.2853   -1.4805   13.1833 N   0  0  0  0  0  0  0  0  0  0  0  0
   15.2477   -0.6484   13.5227 C   0  0  0  0  0  0  0  0  0  0  0  0
   14.9120   -0.4110   14.9615 C   0  0  0  0  0  0  0  0  0  0  0  0
   13.8786   -1.4720   15.3271 C   0  0  0  0  0  0  0  0  0  0  0  0
   12.6057   -1.5369   14.7358 C   0  0  0  0  0  0  0  0  0  0  0  0
   11.7008   -2.5239   15.1222 C   0  0  0  0  0  0  0  0  0  0  0  0
   12.0506   -3.4390   16.1108 C   0  0  0  0  0  0  0  0  0  0  0  0
   13.2898   -3.3660   16.7337 C   0  0  0  0  0  0  0  0  0  0  0  0
   14.2007   -2.3928   16.3407 C   0  0  0  0  0  0  0  0  0  0  0  0
   14.4907    1.0289   15.3535 C   0  0  0  0  0  0  0  0  0  0  0  0
   15.6362    2.0258   15.1082 C   0  0  0  0  0  0  0  0  0  0  0  0
   15.2347    3.4385   15.5254 C   0  0  0  0  0  0  0  0  0  0  0  0
   16.3402    4.3242   15.3690 O   0  0  0  0  0  0  0  0  0  0  0  0
   14.7491    3.4648   16.9687 C   0  0  0  0  0  0  0  0  0  0  0  0
   13.6616    2.4233   17.1876 C   0  0  0  0  0  0  0  0  0  0  0  0
   14.1256    1.0915   16.7942 N   0  0  0  0  0  0  0  0  0  0  0  0
   14.6189   -0.0834   12.4783 N   0  0  0  0  0  0  0  0  0  0  0  0
   15.2862   -0.6261   11.3730 O   0  0  0  0  0  0  0  0  0  0  0  0
   16.8958   -0.7937    9.2440 H   0  0  0  0  0  0  0  0  0  0  0  0
   18.3335   -0.5202   10.2353 H   0  0  0  0  0  0  0  0  0  0  0  0
   18.2817   -1.8765    9.0917 H   0  0  0  0  0  0  0  0  0  0  0  0
   16.4464   -2.9401   10.4316 H   0  0  0  0  0  0  0  0  0  0  0  0
   17.8304   -3.3584   12.3850 H   0  0  0  0  0  0  0  0  0  0  0  0
   18.5174   -3.6697   10.9306 H   0  0  0  0  0  0  0  0  0  0  0  0
   15.8319   -0.6314   15.5252 H   0  0  0  0  0  0  0  0  0  0  0  0
   12.3127   -0.8389   13.9535 H   0  0  0  0  0  0  0  0  0  0  0  0
   10.7333   -2.5921   14.6315 H   0  0  0  0  0  0  0  0  0  0  0  0
   11.3692   -4.2365   16.3836 H   0  0  0  0  0  0  0  0  0  0  0  0
   13.5506   -4.0799   17.5085 H   0  0  0  0  0  0  0  0  0  0  0  0
   15.1732   -2.3578   16.8286 H   0  0  0  0  0  0  0  0  0  0  0  0
   13.6162    1.3256   14.7580 H   0  0  0  0  0  0  0  0  0  0  0  0
   16.5393    1.7200   15.6544 H   0  0  0  0  0  0  0  0  0  0  0  0
   15.9242    2.0409   14.0502 H   0  0  0  0  0  0  0  0  0  0  0  0
   14.4378    3.8001   14.8649 H   0  0  0  0  0  0  0  0  0  0  0  0
   17.0537    4.0112   15.9518 H   0  0  0  0  0  0  0  0  0  0  0  0
   14.3751    4.4648   17.2187 H   0  0  0  0  0  0  0  0  0  0  0  0
   15.5902    3.2822   17.6507 H   0  0  0  0  0  0  0  0  0  0  0  0
   12.7541    2.6885   16.6318 H   0  0  0  0  0  0  0  0  0  0  0  0
   13.3936    2.4049   18.2492 H   0  0  0  0  0  0  0  0  0  0  0  0
   13.3828    0.4145   16.9779 H   0  0  0  0  0  0  0  0  0  0  0  0
  1  2  1  0
  2  3  1  0
  2  4  1  0
  4  5  2  0
  5  6  1  0
  6  7  1  0
  7  8  1  0
  8  9  2  0
  9 10  1  0
 10 11  2  0
 11 12  1  0
 12 13  2  0
  7 14  1  0
 14 15  1  0
 15 16  1  0
 16 17  1  0
 16 18  1  0
 18 19  1  0
 19 20  1  0
  6 21  2  0
 21 22  1  0
 22  4  1  0
 13  8  1  0
 20 14  1  0
  1 23  1  0
  1 24  1  0
  1 25  1  0
  2 26  1  0
  3 27  1  0
  3 28  1  0
  7 29  1  0
  9 30  1  0
 10 31  1  0
 11 32  1  0
 12 33  1  0
 13 34  1  0
 14 35  1  0
 15 36  1  0
 15 37  1  0
 16 38  1  0
 17 39  1  0
 18 40  1  0
 18 41  1  0
 19 42  1  0
 19 43  1  0
 20 44  1  0
M  END
>  <Energy>  (680) 
91.320603742527425

>  <compound_id>  (680) 
1965

>  <target_id>  (680) 
1

>  <reference_id>  (680) 
26

>  <inspiration_ids>  (680) 
[31, 26]

>  <energy_score>  (680) 
-52.42866149486872

>  <distance_score>  (680) 
0.766689821899663

>  <path>  (680) 
/opt/xchem-fragalysis-2/maxwin/BulkDock/SCRATCH/505732/C1965-P26/C1965-P26.minimised.mol

>  <scratch_subdir>  (680) 
/opt/xchem-fragalysis-2/maxwin/BulkDock/SCRATCH/505732/C1965-P26

>  <fragmenstein_runtime>  (680) 
2.4032530784606934

>  <fragmenstein_outcome>  (680) 
acceptable

>  <fragmenstein_mode>  (680) 
expansion

>  <fragmenstein_error>  (680) 


$$$$
C1967-P31
     RDKit          3D

 57 61  0  0  0  0  0  0  0  0999 V2000
   18.3079   -1.4725    9.7548 C   0  0  0  0  0  0  0  0  0  0  0  0
   17.9696   -1.8047   11.2016 C   0  0  0  0  0  0  0  0  0  0  0  0
   18.0497   -3.2509   11.4290 N   0  0  0  0  0  0  0  0  0  0  0  0
   16.6590   -1.2381   11.6363 C   0  0  0  0  0  0  0  0  0  0  0  0
   16.3319   -0.8018   12.8307 N   0  0  0  0  0  0  0  0  0  0  0  0
   15.0263   -0.4387   12.6548 C   0  0  0  0  0  0  0  0  0  0  0  0
   14.2084    0.0754   13.7731 C   0  0  0  0  0  0  0  0  0  0  0  0
   13.7072   -0.9915   14.7540 C   0  0  0  0  0  0  0  0  0  0  0  0
   12.5540   -1.8294   14.2228 C   0  0  0  0  0  0  0  0  0  0  0  0
   11.9359   -2.6389   15.3544 C   0  0  0  0  0  0  0  0  0  0  0  0
   12.9087   -3.3472   16.3106 C   0  0  0  0  0  0  0  0  0  0  0  0
   14.4050   -2.9300   16.3278 C   0  0  0  0  0  0  0  0  0  0  0  0
   14.8153   -1.9222   15.2342 C   0  0  0  0  0  0  0  0  0  0  0  0
   14.7252   -2.4384   17.6719 N   0  0  0  0  0  0  0  0  0  0  0  0
   16.1084   -2.8222   17.9471 C   0  0  0  0  0  0  0  0  0  0  0  0
   16.2051   -3.4241   19.6683 S   0  0  0  0  0  0  0  0  0  0  0  0
   17.2936   -2.2367   20.3141 C   0  0  0  0  0  0  0  0  0  0  0  0
   18.6062   -2.5116   20.4584 C   0  0  0  0  0  0  0  0  0  0  0  0
   19.5122   -1.4691   20.9212 C   0  0  0  0  0  0  0  0  0  0  0  0
   19.0767   -0.2204   21.1754 C   0  0  0  0  0  0  0  0  0  0  0  0
   17.6984    0.0846   21.0168 C   0  0  0  0  0  0  0  0  0  0  0  0
   17.0132    1.2014   21.1420 N   0  0  0  0  0  0  0  0  0  0  0  0
   15.6899    0.9100   20.9084 N   0  0  0  0  0  0  0  0  0  0  0  0
   15.6023   -0.3769   20.6497 C   0  0  0  0  0  0  0  0  0  0  0  0
   16.8482   -0.9458   20.6337 N   0  0  0  0  0  0  0  0  0  0  0  0
   16.4589   -3.7642   16.9129 N   0  0  0  0  0  0  0  0  0  0  0  0
   17.4200   -4.8187   17.1122 C   0  0  0  0  0  0  0  0  0  0  0  0
   15.3018   -4.0800   16.1624 N   0  0  0  0  0  0  0  0  0  0  0  0
   14.5654   -0.5648   11.4077 N   0  0  0  0  0  0  0  0  0  0  0  0
   15.6495   -1.1246   10.7239 O   0  0  0  0  0  0  0  0  0  0  0  0
   17.6070   -1.9347    9.0552 H   0  0  0  0  0  0  0  0  0  0  0  0
   18.2793   -0.3902    9.5844 H   0  0  0  0  0  0  0  0  0  0  0  0
   19.3142   -1.8221    9.4977 H   0  0  0  0  0  0  0  0  0  0  0  0
   18.7365   -1.3373   11.8331 H   0  0  0  0  0  0  0  0  0  0  0  0
   19.0230   -3.5453   11.4067 H   0  0  0  0  0  0  0  0  0  0  0  0
   17.7015   -3.4478   12.3725 H   0  0  0  0  0  0  0  0  0  0  0  0
   13.3562    0.6468   13.3836 H   0  0  0  0  0  0  0  0  0  0  0  0
   14.8210    0.7983   14.3288 H   0  0  0  0  0  0  0  0  0  0  0  0
   13.3219   -0.4248   15.5937 H   0  0  0  0  0  0  0  0  0  0  0  0
   12.8899   -2.4913   13.4184 H   0  0  0  0  0  0  0  0  0  0  0  0
   11.7840   -1.1806   13.7907 H   0  0  0  0  0  0  0  0  0  0  0  0
   11.3121   -1.9580   15.9433 H   0  0  0  0  0  0  0  0  0  0  0  0
   11.2346   -3.3706   14.9357 H   0  0  0  0  0  0  0  0  0  0  0  0
   12.4963   -3.2562   17.3219 H   0  0  0  0  0  0  0  0  0  0  0  0
   12.8199   -4.4233   16.1440 H   0  0  0  0  0  0  0  0  0  0  0  0
   15.6789   -1.3244   15.5582 H   0  0  0  0  0  0  0  0  0  0  0  0
   15.1798   -2.4866   14.3652 H   0  0  0  0  0  0  0  0  0  0  0  0
   14.7156   -1.4160   17.6264 H   0  0  0  0  0  0  0  0  0  0  0  0
   16.7545   -1.9448   17.8254 H   0  0  0  0  0  0  0  0  0  0  0  0
   19.0303   -3.4827   20.2194 H   0  0  0  0  0  0  0  0  0  0  0  0
   20.5612   -1.7258   21.0409 H   0  0  0  0  0  0  0  0  0  0  0  0
   19.7498    0.5624   21.5074 H   0  0  0  0  0  0  0  0  0  0  0  0
   14.6923   -0.9296   20.4641 H   0  0  0  0  0  0  0  0  0  0  0  0
   18.3596   -4.4120   17.5025 H   0  0  0  0  0  0  0  0  0  0  0  0
   17.6671   -5.3004   16.1589 H   0  0  0  0  0  0  0  0  0  0  0  0
   17.0781   -5.5991   17.7976 H   0  0  0  0  0  0  0  0  0  0  0  0
   14.7985   -4.9381   16.3780 H   0  0  0  0  0  0  0  0  0  0  0  0
  1  2  1  0
  2  3  1  0
  2  4  1  0
  4  5  2  0
  5  6  1  0
  6  7  1  0
  7  8  1  0
  8  9  1  0
  9 10  1  0
 10 11  1  0
 11 12  1  0
 12 13  1  0
 12 14  1  0
 14 15  1  0
 15 16  1  0
 16 17  1  0
 17 18  2  0
 18 19  1  0
 19 20  2  0
 20 21  1  0
 21 22  2  0
 22 23  1  0
 23 24  2  0
 24 25  1  0
 15 26  1  0
 26 27  1  0
 26 28  1  0
  6 29  2  0
 29 30  1  0
 30  4  1  0
 13  8  1  0
 25 17  1  0
 28 12  1  0
 25 21  1  0
  1 31  1  0
  1 32  1  0
  1 33  1  0
  2 34  1  0
  3 35  1  0
  3 36  1  0
  7 37  1  0
  7 38  1  0
  8 39  1  0
  9 40  1  0
  9 41  1  0
 10 42  1  0
 10 43  1  0
 11 44  1  0
 11 45  1  0
 13 46  1  0
 13 47  1  0
 14 48  1  0
 15 49  1  0
 18 50  1  0
 19 51  1  0
 20 52  1  0
 24 53  1  0
 27 54  1  0
 27 55  1  0
 27 56  1  0
 28 57  1  0
M  END
>  <Energy>  (681) 
55.275393778448212

>  <compound_id>  (681) 
1967

>  <target_id>  (681) 
1

>  <reference_id>  (681) 
31

>  <inspiration_ids>  (681) 
[31, 36]

>  <energy_score>  (681) 
-75.40491701226222

>  <distance_score>  (681) 
1.2898658918278654

>  <path>  (681) 
/opt/xchem-fragalysis-2/maxwin/BulkDock/SCRATCH/505732/C1967-P31/C1967-P31.minimised.mol

>  <scratch_subdir>  (681) 
/opt/xchem-fragalysis-2/maxwin/BulkDock/SCRATCH/505732/C1967-P31

>  <fragmenstein_runtime>  (681) 
2.252455949783325

>  <fragmenstein_outcome>  (681) 
too moved

>  <fragmenstein_mode>  (681) 
expansion

>  <fragmenstein_error>  (681) 


$$$$
C1967-P36
     RDKit          3D

 57 61  0  0  0  0  0  0  0  0999 V2000
   18.0546   -1.3577    9.9770 C   0  0  0  0  0  0  0  0  0  0  0  0
   17.8170   -1.7993   11.4174 C   0  0  0  0  0  0  0  0  0  0  0  0
   17.9830   -3.2533   11.5194 N   0  0  0  0  0  0  0  0  0  0  0  0
   16.5089   -1.3184   11.9672 C   0  0  0  0  0  0  0  0  0  0  0  0
   16.2323   -0.9281   13.1946 N   0  0  0  0  0  0  0  0  0  0  0  0
   14.9345   -0.5082   13.0791 C   0  0  0  0  0  0  0  0  0  0  0  0
   14.1996    0.1814   14.1714 C   0  0  0  0  0  0  0  0  0  0  0  0
   13.3131   -0.6712   15.0999 C   0  0  0  0  0  0  0  0  0  0  0  0
   12.5474   -1.7897   14.3937 C   0  0  0  0  0  0  0  0  0  0  0  0
   11.8216   -2.6763   15.3913 C   0  0  0  0  0  0  0  0  0  0  0  0
   12.7366   -3.3078   16.4465 C   0  0  0  0  0  0  0  0  0  0  0  0
   14.1103   -2.6345   16.6353 C   0  0  0  0  0  0  0  0  0  0  0  0
   14.0144   -1.1126   16.4024 C   0  0  0  0  0  0  0  0  0  0  0  0
   14.5915   -2.9109   18.0006 N   0  0  0  0  0  0  0  0  0  0  0  0
   15.9797   -3.3492   17.8966 C   0  0  0  0  0  0  0  0  0  0  0  0
   16.0489   -5.0882   18.4294 S   0  0  0  0  0  0  0  0  0  0  0  0
   16.0171   -4.9119   20.1565 C   0  0  0  0  0  0  0  0  0  0  0  0
   17.1727   -4.8281   20.8492 C   0  0  0  0  0  0  0  0  0  0  0  0
   17.1411   -4.7559   22.3028 C   0  0  0  0  0  0  0  0  0  0  0  0
   15.9819   -4.8195   22.9835 C   0  0  0  0  0  0  0  0  0  0  0  0
   14.7592   -4.9413   22.2718 C   0  0  0  0  0  0  0  0  0  0  0  0
   13.5137   -5.0793   22.6723 N   0  0  0  0  0  0  0  0  0  0  0  0
   12.7189   -5.1382   21.5529 N   0  0  0  0  0  0  0  0  0  0  0  0
   13.4986   -5.0168   20.5006 C   0  0  0  0  0  0  0  0  0  0  0  0
   14.8129   -4.9480   20.8814 N   0  0  0  0  0  0  0  0  0  0  0  0
   16.3434   -3.0598   16.5200 N   0  0  0  0  0  0  0  0  0  0  0  0
   17.4424   -3.8045   15.9323 C   0  0  0  0  0  0  0  0  0  0  0  0
   15.1286   -3.1984   15.7524 N   0  0  0  0  0  0  0  0  0  0  0  0
   14.4238   -0.6035   11.8432 N   0  0  0  0  0  0  0  0  0  0  0  0
   15.4606   -1.1733   11.1056 O   0  0  0  0  0  0  0  0  0  0  0  0
   17.3288   -1.8048    9.2900 H   0  0  0  0  0  0  0  0  0  0  0  0
   17.9715   -0.2690    9.8832 H   0  0  0  0  0  0  0  0  0  0  0  0
   19.0566   -1.6445    9.6385 H   0  0  0  0  0  0  0  0  0  0  0  0
   18.5982   -1.3408   12.0378 H   0  0  0  0  0  0  0  0  0  0  0  0
   18.9756   -3.4760   11.5324 H   0  0  0  0  0  0  0  0  0  0  0  0
   17.5985   -3.5528   12.4204 H   0  0  0  0  0  0  0  0  0  0  0  0
   13.5477    0.9302   13.6972 H   0  0  0  0  0  0  0  0  0  0  0  0
   14.9106    0.7710   14.7636 H   0  0  0  0  0  0  0  0  0  0  0  0
   12.5425    0.0359   15.4484 H   0  0  0  0  0  0  0  0  0  0  0  0
   13.2152   -2.3983   13.7841 H   0  0  0  0  0  0  0  0  0  0  0  0
   11.8201   -1.3493   13.7024 H   0  0  0  0  0  0  0  0  0  0  0  0
   11.0666   -2.0659   15.9021 H   0  0  0  0  0  0  0  0  0  0  0  0
   11.2641   -3.4582   14.8650 H   0  0  0  0  0  0  0  0  0  0  0  0
   12.1992   -3.2930   17.3970 H   0  0  0  0  0  0  0  0  0  0  0  0
   12.8602   -4.3769   16.2324 H   0  0  0  0  0  0  0  0  0  0  0  0
   13.4352   -0.6800   17.2325 H   0  0  0  0  0  0  0  0  0  0  0  0
   15.0020   -0.6395   16.4863 H   0  0  0  0  0  0  0  0  0  0  0  0
   14.6061   -2.0336   18.5119 H   0  0  0  0  0  0  0  0  0  0  0  0
   16.6197   -2.7559   18.5594 H   0  0  0  0  0  0  0  0  0  0  0  0
   18.1463   -4.8363   20.3678 H   0  0  0  0  0  0  0  0  0  0  0  0
   18.0877   -4.6665   22.8284 H   0  0  0  0  0  0  0  0  0  0  0  0
   15.9515   -4.7812   24.0667 H   0  0  0  0  0  0  0  0  0  0  0  0
   13.1689   -4.9801   19.4730 H   0  0  0  0  0  0  0  0  0  0  0  0
   18.3409   -3.7214   16.5535 H   0  0  0  0  0  0  0  0  0  0  0  0
   17.6989   -3.3821   14.9538 H   0  0  0  0  0  0  0  0  0  0  0  0
   17.2181   -4.8664   15.7802 H   0  0  0  0  0  0  0  0  0  0  0  0
   14.9154   -4.1917   15.6286 H   0  0  0  0  0  0  0  0  0  0  0  0
  1  2  1  0
  2  3  1  0
  2  4  1  0
  4  5  2  0
  5  6  1  0
  6  7  1  0
  7  8  1  0
  8  9  1  0
  9 10  1  0
 10 11  1  0
 11 12  1  0
 12 13  1  0
 12 14  1  0
 14 15  1  0
 15 16  1  0
 16 17  1  0
 17 18  2  0
 18 19  1  0
 19 20  2  0
 20 21  1  0
 21 22  2  0
 22 23  1  0
 23 24  2  0
 24 25  1  0
 15 26  1  0
 26 27  1  0
 26 28  1  0
  6 29  2  0
 29 30  1  0
 30  4  1  0
 13  8  1  0
 25 17  1  0
 28 12  1  0
 25 21  1  0
  1 31  1  0
  1 32  1  0
  1 33  1  0
  2 34  1  0
  3 35  1  0
  3 36  1  0
  7 37  1  0
  7 38  1  0
  8 39  1  0
  9 40  1  0
  9 41  1  0
 10 42  1  0
 10 43  1  0
 11 44  1  0
 11 45  1  0
 13 46  1  0
 13 47  1  0
 14 48  1  0
 15 49  1  0
 18 50  1  0
 19 51  1  0
 20 52  1  0
 24 53  1  0
 27 54  1  0
 27 55  1  0
 27 56  1  0
 28 57  1  0
M  END
>  <Energy>  (682) 
46.190157265412964

>  <compound_id>  (682) 
1967

>  <target_id>  (682) 
1

>  <reference_id>  (682) 
36

>  <inspiration_ids>  (682) 
[31, 36]

>  <energy_score>  (682) 
-84.49015352529551

>  <distance_score>  (682) 
1.5155952743267909

>  <path>  (682) 
/opt/xchem-fragalysis-2/maxwin/BulkDock/SCRATCH/505732/C1967-P36/C1967-P36.minimised.mol

>  <scratch_subdir>  (682) 
/opt/xchem-fragalysis-2/maxwin/BulkDock/SCRATCH/505732/C1967-P36

>  <fragmenstein_runtime>  (682) 
2.5659914016723633

>  <fragmenstein_outcome>  (682) 
too moved

>  <fragmenstein_mode>  (682) 
expansion

>  <fragmenstein_error>  (682) 


$$$$
C1968-P31
     RDKit          3D

 51 53  0  0  0  0  0  0  0  0999 V2000
   15.2520   -2.4084   17.8039 C   0  0  0  0  0  0  0  0  0  0  0  0
   14.1464   -2.6713   16.8334 C   0  0  0  0  0  0  0  0  0  0  0  0
   13.1072   -3.5300   17.1698 C   0  0  0  0  0  0  0  0  0  0  0  0
   12.0369   -3.7457   16.3028 C   0  0  0  0  0  0  0  0  0  0  0  0
   11.9931   -3.1500   15.0564 C   0  0  0  0  0  0  0  0  0  0  0  0
   13.0765   -2.3846   14.6609 C   0  0  0  0  0  0  0  0  0  0  0  0
   13.2176   -1.9402   13.2265 C   0  0  0  0  0  0  0  0  0  0  0  0
   14.6354   -1.7443   12.7417 C   0  0  0  0  0  0  0  0  0  0  0  0
   15.4030   -0.6757   13.0226 N   0  0  0  0  0  0  0  0  0  0  0  0
   16.5610   -0.8745   12.3072 O   0  0  0  0  0  0  0  0  0  0  0  0
   16.4104   -2.0576   11.6594 C   0  0  0  0  0  0  0  0  0  0  0  0
   17.5947   -2.5366   10.8925 C   0  0  0  0  0  0  0  0  0  0  0  0
   17.9814   -1.5414    9.7991 C   0  0  0  0  0  0  0  0  0  0  0  0
   18.7563   -2.8001   11.7604 N   0  0  0  0  0  0  0  0  0  0  0  0
   15.2220   -2.5915   11.8312 N   0  0  0  0  0  0  0  0  0  0  0  0
   14.0177   -2.0316   15.6113 C   0  0  0  0  0  0  0  0  0  0  0  0
   14.3264   -0.7212   15.4225 N   0  0  0  0  0  0  0  0  0  0  0  0
   13.4161    0.4892   15.0796 C   0  0  0  0  0  0  0  0  0  0  0  0
   12.2520    0.5591   14.9832 O   0  0  0  0  0  0  0  0  0  0  0  0
   14.2678    1.6516   14.7549 C   0  0  0  0  0  0  0  0  0  0  0  0
   13.8114    2.0023   13.0912 S   0  0  0  0  0  0  0  0  0  0  0  0
   13.3003    0.8460   12.3842 O   0  0  0  0  0  0  0  0  0  0  0  0
   14.9279    2.7483   12.5476 O   0  0  0  0  0  0  0  0  0  0  0  0
   12.4153    3.0787   13.0939 C   0  0  0  0  0  0  0  0  0  0  0  0
   11.5448    3.2340   14.1742 C   0  0  0  0  0  0  0  0  0  0  0  0
   10.3862    3.9886   14.0132 C   0  0  0  0  0  0  0  0  0  0  0  0
   10.1284    4.6119   12.7956 C   0  0  0  0  0  0  0  0  0  0  0  0
   11.0207    4.4779   11.7343 C   0  0  0  0  0  0  0  0  0  0  0  0
   12.1531    3.6932   11.8718 C   0  0  0  0  0  0  0  0  0  0  0  0
   14.8780   -1.8820   18.6868 H   0  0  0  0  0  0  0  0  0  0  0  0
   16.0565   -1.8205   17.3509 H   0  0  0  0  0  0  0  0  0  0  0  0
   15.7008   -3.3515   18.1302 H   0  0  0  0  0  0  0  0  0  0  0  0
   13.0803   -4.0052   18.1451 H   0  0  0  0  0  0  0  0  0  0  0  0
   11.2774   -4.4588   16.5896 H   0  0  0  0  0  0  0  0  0  0  0  0
   11.1873   -3.3792   14.3655 H   0  0  0  0  0  0  0  0  0  0  0  0
   12.8520   -2.7938   12.6771 H   0  0  0  0  0  0  0  0  0  0  0  0
   12.5434   -1.1149   13.0409 H   0  0  0  0  0  0  0  0  0  0  0  0
   17.3333   -3.4874   10.4311 H   0  0  0  0  0  0  0  0  0  0  0  0
   18.7772   -1.9467    9.1644 H   0  0  0  0  0  0  0  0  0  0  0  0
   18.3380   -0.5936   10.2199 H   0  0  0  0  0  0  0  0  0  0  0  0
   17.1256   -1.3082    9.1567 H   0  0  0  0  0  0  0  0  0  0  0  0
   19.5397   -3.1060   11.1867 H   0  0  0  0  0  0  0  0  0  0  0  0
   19.0444   -1.9314   12.2082 H   0  0  0  0  0  0  0  0  0  0  0  0
   15.2872   -0.4101   15.5030 H   0  0  0  0  0  0  0  0  0  0  0  0
   15.3385    1.4414   14.7763 H   0  0  0  0  0  0  0  0  0  0  0  0
   14.0682    2.5074   15.4008 H   0  0  0  0  0  0  0  0  0  0  0  0
   11.7189    2.7770   15.1396 H   0  0  0  0  0  0  0  0  0  0  0  0
    9.6971    4.1135   14.8452 H   0  0  0  0  0  0  0  0  0  0  0  0
    9.2439    5.2362   12.6834 H   0  0  0  0  0  0  0  0  0  0  0  0
   10.8421    5.0010   10.7990 H   0  0  0  0  0  0  0  0  0  0  0  0
   12.8284    3.5665   11.0266 H   0  0  0  0  0  0  0  0  0  0  0  0
  1  2  1  0
  2  3  2  0
  3  4  1  0
  4  5  2  0
  5  6  1  0
  6  7  1  0
  7  8  1  0
  8  9  2  0
  9 10  1  0
 10 11  1  0
 11 12  1  0
 12 13  1  0
 12 14  1  0
 11 15  2  0
  6 16  2  0
 16 17  1  0
 17 18  1  0
 18 19  2  0
 18 20  1  0
 20 21  1  0
 21 22  2  0
 21 23  2  0
 21 24  1  0
 24 25  2  0
 25 26  1  0
 26 27  2  0
 27 28  1  0
 28 29  2  0
 16  2  1  0
 29 24  1  0
 15  8  1  0
  1 30  1  0
  1 31  1  0
  1 32  1  0
  3 33  1  0
  4 34  1  0
  5 35  1  0
  7 36  1  0
  7 37  1  0
 12 38  1  0
 13 39  1  0
 13 40  1  0
 13 41  1  0
 14 42  1  0
 14 43  1  0
 17 44  1  0
 20 45  1  0
 20 46  1  0
 25 47  1  0
 26 48  1  0
 27 49  1  0
 28 50  1  0
 29 51  1  0
M  END
>  <Energy>  (683) 
149.13305150828413

>  <compound_id>  (683) 
1968

>  <target_id>  (683) 
1

>  <reference_id>  (683) 
31

>  <inspiration_ids>  (683) 
[31, 50]

>  <energy_score>  (683) 
16.729340320863486

>  <distance_score>  (683) 
1.8663299285335446

>  <path>  (683) 
/opt/xchem-fragalysis-2/maxwin/BulkDock/SCRATCH/505732/C1968-P31/C1968-P31.minimised.mol

>  <scratch_subdir>  (683) 
/opt/xchem-fragalysis-2/maxwin/BulkDock/SCRATCH/505732/C1968-P31

>  <fragmenstein_runtime>  (683) 
6.055704593658447

>  <fragmenstein_outcome>  (683) 
too moved

>  <fragmenstein_mode>  (683) 
expansion

>  <fragmenstein_error>  (683) 


$$$$
C1968-P50
     RDKit          3D

 51 53  0  0  0  0  0  0  0  0999 V2000
   14.7078   -2.2878   18.7139 C   0  0  0  0  0  0  0  0  0  0  0  0
   13.9245   -2.4183   17.4394 C   0  0  0  0  0  0  0  0  0  0  0  0
   12.9871   -3.4461   17.2933 C   0  0  0  0  0  0  0  0  0  0  0  0
   12.2389   -3.5768   16.1241 C   0  0  0  0  0  0  0  0  0  0  0  0
   12.4854   -2.7544   15.0360 C   0  0  0  0  0  0  0  0  0  0  0  0
   13.4323   -1.7328   15.1413 C   0  0  0  0  0  0  0  0  0  0  0  0
   13.4720   -0.6966   14.0497 C   0  0  0  0  0  0  0  0  0  0  0  0
   14.7332   -0.7005   13.2365 C   0  0  0  0  0  0  0  0  0  0  0  0
   14.8834    0.2368   12.2763 N   0  0  0  0  0  0  0  0  0  0  0  0
   15.9743   -0.2073   11.5452 O   0  0  0  0  0  0  0  0  0  0  0  0
   16.3732   -1.3811   12.1115 C   0  0  0  0  0  0  0  0  0  0  0  0
   17.3941   -2.1821   11.3550 C   0  0  0  0  0  0  0  0  0  0  0  0
   18.2375   -1.3408   10.3989 C   0  0  0  0  0  0  0  0  0  0  0  0
   18.2826   -2.9314   12.2580 N   0  0  0  0  0  0  0  0  0  0  0  0
   15.6779   -1.7020   13.1880 N   0  0  0  0  0  0  0  0  0  0  0  0
   14.0940   -1.5367   16.3756 C   0  0  0  0  0  0  0  0  0  0  0  0
   14.6641   -0.2839   16.4970 N   0  0  0  0  0  0  0  0  0  0  0  0
   14.3646    0.8663   17.4926 C   0  0  0  0  0  0  0  0  0  0  0  0
   13.6452    0.9033   18.4111 O   0  0  0  0  0  0  0  0  0  0  0  0
   15.0925    2.1178   17.0655 C   0  0  0  0  0  0  0  0  0  0  0  0
   14.8955    2.4413   15.3470 S   0  0  0  0  0  0  0  0  0  0  0  0
   15.4149    1.2583   14.7018 O   0  0  0  0  0  0  0  0  0  0  0  0
   15.5382    3.6983   15.0504 O   0  0  0  0  0  0  0  0  0  0  0  0
   13.2204    2.6443   14.8006 C   0  0  0  0  0  0  0  0  0  0  0  0
   13.0291    2.9180   13.4374 C   0  0  0  0  0  0  0  0  0  0  0  0
   11.7598    3.1892   12.9261 C   0  0  0  0  0  0  0  0  0  0  0  0
   10.6706    3.1817   13.7778 C   0  0  0  0  0  0  0  0  0  0  0  0
   10.8515    2.8465   15.1174 C   0  0  0  0  0  0  0  0  0  0  0  0
   12.1237    2.5844   15.6401 C   0  0  0  0  0  0  0  0  0  0  0  0
   14.3251   -1.4766   19.3366 H   0  0  0  0  0  0  0  0  0  0  0  0
   15.7637   -2.0984   18.4926 H   0  0  0  0  0  0  0  0  0  0  0  0
   14.6653   -3.2131   19.2988 H   0  0  0  0  0  0  0  0  0  0  0  0
   12.8105   -4.1376   18.1150 H   0  0  0  0  0  0  0  0  0  0  0  0
   11.4866   -4.3546   16.0517 H   0  0  0  0  0  0  0  0  0  0  0  0
   11.9086   -2.8990   14.1251 H   0  0  0  0  0  0  0  0  0  0  0  0
   12.5951   -0.8071   13.4098 H   0  0  0  0  0  0  0  0  0  0  0  0
   13.2695    0.2629   14.4997 H   0  0  0  0  0  0  0  0  0  0  0  0
   16.8438   -2.9136   10.7544 H   0  0  0  0  0  0  0  0  0  0  0  0
   18.9667   -1.9633    9.8679 H   0  0  0  0  0  0  0  0  0  0  0  0
   18.7859   -0.5543   10.9304 H   0  0  0  0  0  0  0  0  0  0  0  0
   17.6111   -0.8568    9.6410 H   0  0  0  0  0  0  0  0  0  0  0  0
   18.7863   -2.2673   12.8465 H   0  0  0  0  0  0  0  0  0  0  0  0
   17.6762   -3.4379   12.9173 H   0  0  0  0  0  0  0  0  0  0  0  0
   15.2869    0.0554   15.7598 H   0  0  0  0  0  0  0  0  0  0  0  0
   14.7101    2.9834   17.6142 H   0  0  0  0  0  0  0  0  0  0  0  0
   16.1593    2.0053   17.2779 H   0  0  0  0  0  0  0  0  0  0  0  0
   13.8906    2.9627   12.7690 H   0  0  0  0  0  0  0  0  0  0  0  0
   11.6511    3.4558   11.8786 H   0  0  0  0  0  0  0  0  0  0  0  0
    9.6894    3.4841   13.4318 H   0  0  0  0  0  0  0  0  0  0  0  0
    9.9952    2.8485   15.7907 H   0  0  0  0  0  0  0  0  0  0  0  0
   12.2155    2.3932   16.7054 H   0  0  0  0  0  0  0  0  0  0  0  0
  1  2  1  0
  2  3  2  0
  3  4  1  0
  4  5  2  0
  5  6  1  0
  6  7  1  0
  7  8  1  0
  8  9  2  0
  9 10  1  0
 10 11  1  0
 11 12  1  0
 12 13  1  0
 12 14  1  0
 11 15  2  0
  6 16  2  0
 16 17  1  0
 17 18  1  0
 18 19  2  0
 18 20  1  0
 20 21  1  0
 21 22  2  0
 21 23  2  0
 21 24  1  0
 24 25  2  0
 25 26  1  0
 26 27  2  0
 27 28  1  0
 28 29  2  0
 16  2  1  0
 29 24  1  0
 15  8  1  0
  1 30  1  0
  1 31  1  0
  1 32  1  0
  3 33  1  0
  4 34  1  0
  5 35  1  0
  7 36  1  0
  7 37  1  0
 12 38  1  0
 13 39  1  0
 13 40  1  0
 13 41  1  0
 14 42  1  0
 14 43  1  0
 17 44  1  0
 20 45  1  0
 20 46  1  0
 25 47  1  0
 26 48  1  0
 27 49  1  0
 28 50  1  0
 29 51  1  0
M  END
>  <Energy>  (684) 
129.97277068342723

>  <compound_id>  (684) 
1968

>  <target_id>  (684) 
1

>  <reference_id>  (684) 
50

>  <inspiration_ids>  (684) 
[31, 50]

>  <energy_score>  (684) 
-2.4309405039905982

>  <distance_score>  (684) 
2.1213042594974887

>  <path>  (684) 
/opt/xchem-fragalysis-2/maxwin/BulkDock/SCRATCH/505732/C1968-P50/C1968-P50.minimised.mol

>  <scratch_subdir>  (684) 
/opt/xchem-fragalysis-2/maxwin/BulkDock/SCRATCH/505732/C1968-P50

>  <fragmenstein_runtime>  (684) 
5.556994438171387

>  <fragmenstein_outcome>  (684) 
too moved

>  <fragmenstein_mode>  (684) 
expansion

>  <fragmenstein_error>  (684) 


$$$$
C1969-P31
     RDKit          3D

 46 48  0  0  0  0  0  0  0  0999 V2000
   18.4297   -0.3514    9.9542 C   0  0  0  0  0  0  0  0  0  0  0  0
   16.9667   -0.7544   10.0947 C   0  0  0  0  0  0  0  0  0  0  0  0
   16.6316   -1.5516   11.3714 C   0  0  0  0  0  0  0  0  0  0  0  0
   17.5089   -2.6811   11.4056 O   0  0  0  0  0  0  0  0  0  0  0  0
   15.2865   -2.0345   11.2396 O   0  0  0  0  0  0  0  0  0  0  0  0
   14.8371   -2.5598   12.5014 C   0  0  0  0  0  0  0  0  0  0  0  0
   14.4830   -1.4876   13.5850 C   0  0  0  0  0  0  0  0  0  0  0  0
   14.7751   -2.0216   15.0402 C   0  0  0  0  0  0  0  0  0  0  0  0
   13.6485   -2.5651   15.9266 C   0  0  0  0  0  0  0  0  0  0  0  0
   12.2472   -2.3063   15.4221 C   0  0  0  0  0  0  0  0  0  0  0  0
   12.1639   -1.0033   14.6563 C   0  0  0  0  0  0  0  0  0  0  0  0
   12.9891   -1.1239   13.3882 C   0  0  0  0  0  0  0  0  0  0  0  0
   15.4282   -0.3415   13.2903 N   0  0  0  0  0  0  0  0  0  0  0  0
   15.1956    0.8988   13.8052 C   0  0  0  0  0  0  0  0  0  0  0  0
   14.0210    1.3219   14.2055 N   0  0  0  0  0  0  0  0  0  0  0  0
   14.1119    2.6045   14.6938 C   0  0  0  0  0  0  0  0  0  0  0  0
   12.8978    3.2953   15.1839 C   0  0  0  0  0  0  0  0  0  0  0  0
   15.2847    3.2347   14.6973 N   0  0  0  0  0  0  0  0  0  0  0  0
   16.3777    2.1609   14.0487 S   0  0  0  0  0  0  0  0  0  0  0  0
   16.7518   -0.6652   12.6715 C   0  0  0  0  0  0  0  0  0  0  0  0
   17.6813   -1.2814   13.7124 C   0  0  0  0  0  0  0  0  0  0  0  0
   18.5747    0.1987    9.0187 H   0  0  0  0  0  0  0  0  0  0  0  0
   18.7578    0.2954   10.7721 H   0  0  0  0  0  0  0  0  0  0  0  0
   19.0832   -1.2288    9.9267 H   0  0  0  0  0  0  0  0  0  0  0  0
   16.7044   -1.3538    9.2177 H   0  0  0  0  0  0  0  0  0  0  0  0
   16.3287    0.1367   10.0415 H   0  0  0  0  0  0  0  0  0  0  0  0
   17.2470   -3.2247   10.6415 H   0  0  0  0  0  0  0  0  0  0  0  0
   13.9974   -3.2117   12.2722 H   0  0  0  0  0  0  0  0  0  0  0  0
   15.6385   -3.1646   12.9037 H   0  0  0  0  0  0  0  0  0  0  0  0
   15.5636   -2.7824   15.0170 H   0  0  0  0  0  0  0  0  0  0  0  0
   15.2360   -1.2043   15.6079 H   0  0  0  0  0  0  0  0  0  0  0  0
   13.7806   -3.6390   16.1002 H   0  0  0  0  0  0  0  0  0  0  0  0
   13.7568   -2.1238   16.9245 H   0  0  0  0  0  0  0  0  0  0  0  0
   11.9309   -3.1307   14.7716 H   0  0  0  0  0  0  0  0  0  0  0  0
   11.5433   -2.3071   16.2546 H   0  0  0  0  0  0  0  0  0  0  0  0
   11.1206   -0.7969   14.3969 H   0  0  0  0  0  0  0  0  0  0  0  0
   12.5067   -0.1628   15.2538 H   0  0  0  0  0  0  0  0  0  0  0  0
   12.5023   -1.9279   12.8340 H   0  0  0  0  0  0  0  0  0  0  0  0
   12.8741   -0.2268   12.7723 H   0  0  0  0  0  0  0  0  0  0  0  0
   12.6968    4.1896   14.5858 H   0  0  0  0  0  0  0  0  0  0  0  0
   12.0224    2.6415   15.1189 H   0  0  0  0  0  0  0  0  0  0  0  0
   13.0205    3.5957   16.2290 H   0  0  0  0  0  0  0  0  0  0  0  0
   17.2273    0.2684   12.3579 H   0  0  0  0  0  0  0  0  0  0  0  0
   17.6883   -0.7009   14.6409 H   0  0  0  0  0  0  0  0  0  0  0  0
   17.4194   -2.3094   13.9713 H   0  0  0  0  0  0  0  0  0  0  0  0
   18.7106   -1.2987   13.3359 H   0  0  0  0  0  0  0  0  0  0  0  0
  1  2  1  0
  2  3  1  0
  3  4  1  0
  3  5  1  0
  5  6  1  0
  6  7  1  0
  7  8  1  0
  8  9  1  0
  9 10  1  0
 10 11  1  0
 11 12  1  0
  7 13  1  0
 13 14  1  0
 14 15  2  0
 15 16  1  0
 16 17  1  0
 16 18  2  0
 18 19  1  0
 13 20  1  0
 20 21  1  0
 20  3  1  0
 12  7  1  0
 19 14  1  0
  1 22  1  0
  1 23  1  0
  1 24  1  0
  2 25  1  0
  2 26  1  0
  4 27  1  0
  6 28  1  0
  6 29  1  0
  8 30  1  0
  8 31  1  0
  9 32  1  0
  9 33  1  0
 10 34  1  0
 10 35  1  0
 11 36  1  0
 11 37  1  0
 12 38  1  0
 12 39  1  0
 17 40  1  0
 17 41  1  0
 17 42  1  0
 20 43  1  0
 21 44  1  0
 21 45  1  0
 21 46  1  0
M  END
>  <Energy>  (685) 
106.49488059069179

>  <compound_id>  (685) 
1969

>  <target_id>  (685) 
1

>  <reference_id>  (685) 
31

>  <inspiration_ids>  (685) 
[31, 55]

>  <energy_score>  (685) 
-75.44698463927682

>  <distance_score>  (685) 
2.4356966529350452

>  <path>  (685) 
/opt/xchem-fragalysis-2/maxwin/BulkDock/SCRATCH/505732/C1969-P31/C1969-P31.minimised.mol

>  <scratch_subdir>  (685) 
/opt/xchem-fragalysis-2/maxwin/BulkDock/SCRATCH/505732/C1969-P31

>  <fragmenstein_runtime>  (685) 
45.917394399642944

>  <fragmenstein_outcome>  (685) 
too moved

>  <fragmenstein_mode>  (685) 
expansion

>  <fragmenstein_error>  (685) 


$$$$
C1969-P55
     RDKit          3D

 46 48  0  0  0  0  0  0  0  0999 V2000
   18.3024   -2.9926   10.1555 C   0  0  0  0  0  0  0  0  0  0  0  0
   17.5302   -1.7421   10.5626 C   0  0  0  0  0  0  0  0  0  0  0  0
   16.7016   -1.9153   11.8666 C   0  0  0  0  0  0  0  0  0  0  0  0
   17.5087   -2.6418   12.7828 O   0  0  0  0  0  0  0  0  0  0  0  0
   15.6114   -2.7656   11.5767 O   0  0  0  0  0  0  0  0  0  0  0  0
   14.3731   -2.4399   12.1964 C   0  0  0  0  0  0  0  0  0  0  0  0
   14.3322   -1.6891   13.5792 C   0  0  0  0  0  0  0  0  0  0  0  0
   15.0867   -2.3571   14.7631 C   0  0  0  0  0  0  0  0  0  0  0  0
   14.2451   -2.7459   15.9830 C   0  0  0  0  0  0  0  0  0  0  0  0
   13.3543   -1.6056   16.4150 C   0  0  0  0  0  0  0  0  0  0  0  0
   12.3450   -1.2534   15.3382 C   0  0  0  0  0  0  0  0  0  0  0  0
   12.7982   -1.5318   13.8983 C   0  0  0  0  0  0  0  0  0  0  0  0
   15.0267   -0.4278   13.2058 N   0  0  0  0  0  0  0  0  0  0  0  0
   14.5675    0.7776   13.6140 C   0  0  0  0  0  0  0  0  0  0  0  0
   14.0912    1.0009   14.8109 N   0  0  0  0  0  0  0  0  0  0  0  0
   13.7102    2.3210   14.9217 C   0  0  0  0  0  0  0  0  0  0  0  0
   13.1383    2.8198   16.1951 C   0  0  0  0  0  0  0  0  0  0  0  0
   13.8454    3.1411   13.8784 N   0  0  0  0  0  0  0  0  0  0  0  0
   14.5248    2.2282   12.6597 S   0  0  0  0  0  0  0  0  0  0  0  0
   16.2940   -0.4993   12.4157 C   0  0  0  0  0  0  0  0  0  0  0  0
   17.4392    0.0536   13.2623 C   0  0  0  0  0  0  0  0  0  0  0  0
   18.6847   -2.8869    9.1355 H   0  0  0  0  0  0  0  0  0  0  0  0
   19.1611   -3.1518   10.8161 H   0  0  0  0  0  0  0  0  0  0  0  0
   17.6761   -3.8851   10.2029 H   0  0  0  0  0  0  0  0  0  0  0  0
   18.2632   -0.9354   10.6746 H   0  0  0  0  0  0  0  0  0  0  0  0
   16.8565   -1.4573    9.7460 H   0  0  0  0  0  0  0  0  0  0  0  0
   17.1054   -3.5322   12.7519 H   0  0  0  0  0  0  0  0  0  0  0  0
   13.8740   -1.7936   11.4673 H   0  0  0  0  0  0  0  0  0  0  0  0
   13.7936   -3.3562   12.2262 H   0  0  0  0  0  0  0  0  0  0  0  0
   15.6526   -3.2308   14.4321 H   0  0  0  0  0  0  0  0  0  0  0  0
   15.8501   -1.6640   15.1395 H   0  0  0  0  0  0  0  0  0  0  0  0
   13.6274   -3.6257   15.7827 H   0  0  0  0  0  0  0  0  0  0  0  0
   14.9162   -3.0216   16.8051 H   0  0  0  0  0  0  0  0  0  0  0  0
   12.8242   -1.8904   17.3257 H   0  0  0  0  0  0  0  0  0  0  0  0
   13.9657   -0.7344   16.6727 H   0  0  0  0  0  0  0  0  0  0  0  0
   11.4301   -1.8363   15.5149 H   0  0  0  0  0  0  0  0  0  0  0  0
   12.0254   -0.2124   15.4537 H   0  0  0  0  0  0  0  0  0  0  0  0
   12.3417   -0.7833   13.2397 H   0  0  0  0  0  0  0  0  0  0  0  0
   12.3091   -2.4789   13.6262 H   0  0  0  0  0  0  0  0  0  0  0  0
   13.6636    3.7196   16.5301 H   0  0  0  0  0  0  0  0  0  0  0  0
   12.0782    3.0606   16.0685 H   0  0  0  0  0  0  0  0  0  0  0  0
   13.2232    2.0651   16.9834 H   0  0  0  0  0  0  0  0  0  0  0  0
   16.1502    0.1417   11.5363 H   0  0  0  0  0  0  0  0  0  0  0  0
   18.3943    0.0097   12.7293 H   0  0  0  0  0  0  0  0  0  0  0  0
   17.2814    1.1048   13.5243 H   0  0  0  0  0  0  0  0  0  0  0  0
   17.5574   -0.4917   14.2042 H   0  0  0  0  0  0  0  0  0  0  0  0
  1  2  1  0
  2  3  1  0
  3  4  1  0
  3  5  1  0
  5  6  1  0
  6  7  1  0
  7  8  1  0
  8  9  1  0
  9 10  1  0
 10 11  1  0
 11 12  1  0
  7 13  1  0
 13 14  1  0
 14 15  2  0
 15 16  1  0
 16 17  1  0
 16 18  2  0
 18 19  1  0
 13 20  1  0
 20 21  1  0
 20  3  1  0
 12  7  1  0
 19 14  1  0
  1 22  1  0
  1 23  1  0
  1 24  1  0
  2 25  1  0
  2 26  1  0
  4 27  1  0
  6 28  1  0
  6 29  1  0
  8 30  1  0
  8 31  1  0
  9 32  1  0
  9 33  1  0
 10 34  1  0
 10 35  1  0
 11 36  1  0
 11 37  1  0
 12 38  1  0
 12 39  1  0
 17 40  1  0
 17 41  1  0
 17 42  1  0
 20 43  1  0
 21 44  1  0
 21 45  1  0
 21 46  1  0
M  END
>  <Energy>  (686) 
106.70487742555488

>  <compound_id>  (686) 
1969

>  <target_id>  (686) 
1

>  <reference_id>  (686) 
55

>  <inspiration_ids>  (686) 
[31, 55]

>  <energy_score>  (686) 
-75.23698780441282

>  <distance_score>  (686) 
2.0888011059000573

>  <path>  (686) 
/opt/xchem-fragalysis-2/maxwin/BulkDock/SCRATCH/505732/C1969-P55/C1969-P55.minimised.mol

>  <scratch_subdir>  (686) 
/opt/xchem-fragalysis-2/maxwin/BulkDock/SCRATCH/505732/C1969-P55

>  <fragmenstein_runtime>  (686) 
44.45710754394531

>  <fragmenstein_outcome>  (686) 
too moved

>  <fragmenstein_mode>  (686) 
expansion

>  <fragmenstein_error>  (686) 


$$$$
C1973-P31
     RDKit          3D

 49 52  0  0  0  0  0  0  0  0999 V2000
   16.0783    2.2314   12.6814 C   0  0  0  0  0  0  0  0  0  0  0  0
   16.1630    1.2182   11.6223 C   0  0  0  0  0  0  0  0  0  0  0  0
   15.4119    1.3517   10.5287 N   0  0  0  0  0  0  0  0  0  0  0  0
   15.8875    0.1388    9.4981 S   0  0  0  0  0  0  0  0  0  0  0  0
   16.9206   -0.6003   10.6810 C   0  0  0  0  0  0  0  0  0  0  0  0
   17.2834   -1.9138   10.6026 N   0  0  0  0  0  0  0  0  0  0  0  0
   16.1241   -2.7489   10.9506 C   0  0  0  0  0  0  0  0  0  0  0  0
   15.6197   -2.4608   12.3520 C   0  0  0  0  0  0  0  0  0  0  0  0
   16.6474   -2.5383   13.4200 N   0  0  0  0  0  0  0  0  0  0  0  0
   16.3215   -1.8046   14.5410 C   0  0  0  0  0  0  0  0  0  0  0  0
   17.2742   -1.2575   15.4444 C   0  0  0  0  0  0  0  0  0  0  0  0
   16.7891   -0.0183   15.7735 C   0  0  0  0  0  0  0  0  0  0  0  0
   15.5199    0.0658   15.2528 N   0  0  0  0  0  0  0  0  0  0  0  0
   14.7052    1.1928   15.1711 C   0  0  0  0  0  0  0  0  0  0  0  0
   13.4240    1.0585   14.8104 C   0  0  0  0  0  0  0  0  0  0  0  0
   12.8970   -0.2708   14.5583 C   0  0  0  0  0  0  0  0  0  0  0  0
   11.4174   -0.3862   14.4011 C   0  0  0  0  0  0  0  0  0  0  0  0
   10.8396    0.6197   13.5121 N   0  0  0  0  0  0  0  0  0  0  0  0
   13.7160   -1.3449   14.5328 C   0  0  0  0  0  0  0  0  0  0  0  0
   15.1095   -1.1894   14.8175 C   0  0  0  0  0  0  0  0  0  0  0  0
   18.1026   -2.4328   12.9786 C   0  0  0  0  0  0  0  0  0  0  0  0
   18.8818   -3.5964   13.6182 C   0  0  0  0  0  0  0  0  0  0  0  0
   18.4077   -2.3957   11.4390 C   0  0  0  0  0  0  0  0  0  0  0  0
   19.7020   -1.6397   11.1100 C   0  0  0  0  0  0  0  0  0  0  0  0
   17.0718    0.1797   11.7242 N   0  0  0  0  0  0  0  0  0  0  0  0
   16.6642    1.9487   13.5561 H   0  0  0  0  0  0  0  0  0  0  0  0
   15.0419    2.4515   12.9399 H   0  0  0  0  0  0  0  0  0  0  0  0
   16.5139    3.1693   12.3161 H   0  0  0  0  0  0  0  0  0  0  0  0
   16.4054   -3.7943   10.8551 H   0  0  0  0  0  0  0  0  0  0  0  0
   15.2859   -2.5625   10.2769 H   0  0  0  0  0  0  0  0  0  0  0  0
   14.7876   -3.1292   12.5616 H   0  0  0  0  0  0  0  0  0  0  0  0
   15.1647   -1.4646   12.3191 H   0  0  0  0  0  0  0  0  0  0  0  0
   18.2949   -1.5636   15.6185 H   0  0  0  0  0  0  0  0  0  0  0  0
   17.2327    0.8117   16.3018 H   0  0  0  0  0  0  0  0  0  0  0  0
   15.1392    2.1396   15.4613 H   0  0  0  0  0  0  0  0  0  0  0  0
   12.7627    1.9171   14.7595 H   0  0  0  0  0  0  0  0  0  0  0  0
   11.1858   -1.3892   14.0350 H   0  0  0  0  0  0  0  0  0  0  0  0
   10.9253   -0.2934   15.3744 H   0  0  0  0  0  0  0  0  0  0  0  0
   11.3803    0.6242   12.6501 H   0  0  0  0  0  0  0  0  0  0  0  0
    9.9238    0.2484   13.2132 H   0  0  0  0  0  0  0  0  0  0  0  0
   13.3270   -2.3376   14.3527 H   0  0  0  0  0  0  0  0  0  0  0  0
   18.5232   -1.4954   13.3621 H   0  0  0  0  0  0  0  0  0  0  0  0
   18.5813   -4.5571   13.1887 H   0  0  0  0  0  0  0  0  0  0  0  0
   18.7122   -3.6615   14.6970 H   0  0  0  0  0  0  0  0  0  0  0  0
   19.9586   -3.4811   13.4591 H   0  0  0  0  0  0  0  0  0  0  0  0
   18.5948   -3.4294   11.1123 H   0  0  0  0  0  0  0  0  0  0  0  0
   19.8880   -1.6423   10.0302 H   0  0  0  0  0  0  0  0  0  0  0  0
   19.6633   -0.5958   11.4375 H   0  0  0  0  0  0  0  0  0  0  0  0
   20.5625   -2.1082   11.5979 H   0  0  0  0  0  0  0  0  0  0  0  0
  1  2  1  0
  2  3  2  0
  3  4  1  0
  4  5  1  0
  5  6  1  0
  6  7  1  0
  7  8  1  0
  8  9  1  0
  9 10  1  0
 10 11  1  0
 11 12  2  0
 12 13  1  0
 13 14  1  0
 14 15  2  0
 15 16  1  0
 16 17  1  0
 17 18  1  0
 16 19  2  0
 19 20  1  0
  9 21  1  0
 21 22  1  0
 21 23  1  0
 23 24  1  0
  5 25  2  0
 25  2  1  0
 23  6  1  0
 20 10  2  0
 20 13  1  0
  1 26  1  0
  1 27  1  0
  1 28  1  0
  7 29  1  0
  7 30  1  0
  8 31  1  0
  8 32  1  0
 11 33  1  0
 12 34  1  0
 14 35  1  0
 15 36  1  0
 17 37  1  0
 17 38  1  0
 18 39  1  0
 18 40  1  0
 19 41  1  0
 21 42  1  0
 22 43  1  0
 22 44  1  0
 22 45  1  0
 23 46  1  0
 24 47  1  0
 24 48  1  0
 24 49  1  0
M  END
>  <Energy>  (687) 
135.48838137587828

>  <compound_id>  (687) 
1973

>  <target_id>  (687) 
1

>  <reference_id>  (687) 
31

>  <inspiration_ids>  (687) 
[31, 66]

>  <energy_score>  (687) 
-31.772308864545465

>  <distance_score>  (687) 
2.8380052558343927

>  <path>  (687) 
/opt/xchem-fragalysis-2/maxwin/BulkDock/SCRATCH/505732/C1973-P31/C1973-P31.minimised.mol

>  <scratch_subdir>  (687) 
/opt/xchem-fragalysis-2/maxwin/BulkDock/SCRATCH/505732/C1973-P31

>  <fragmenstein_runtime>  (687) 
3.5387046337127686

>  <fragmenstein_outcome>  (687) 
too moved

>  <fragmenstein_mode>  (687) 
expansion

>  <fragmenstein_error>  (687) 


$$$$
C1973-P66
     RDKit          3D

 49 52  0  0  0  0  0  0  0  0999 V2000
   14.0113    1.4652   11.6928 C   0  0  0  0  0  0  0  0  0  0  0  0
   15.4118    1.0948   11.9086 C   0  0  0  0  0  0  0  0  0  0  0  0
   16.1351    1.6502   12.8726 N   0  0  0  0  0  0  0  0  0  0  0  0
   17.5877    0.8397   12.8611 S   0  0  0  0  0  0  0  0  0  0  0  0
   17.1234   -0.2539   11.6155 C   0  0  0  0  0  0  0  0  0  0  0  0
   17.6628   -1.4743   11.2864 N   0  0  0  0  0  0  0  0  0  0  0  0
   16.5537   -2.4404   11.1078 C   0  0  0  0  0  0  0  0  0  0  0  0
   15.7758   -2.5126   12.4431 C   0  0  0  0  0  0  0  0  0  0  0  0
   16.6220   -2.8421   13.6280 N   0  0  0  0  0  0  0  0  0  0  0  0
   16.0822   -2.7236   14.8971 C   0  0  0  0  0  0  0  0  0  0  0  0
   16.6804   -3.2189   16.0942 C   0  0  0  0  0  0  0  0  0  0  0  0
   16.1059   -2.5593   17.1564 C   0  0  0  0  0  0  0  0  0  0  0  0
   15.2667   -1.6301   16.6094 N   0  0  0  0  0  0  0  0  0  0  0  0
   14.9103   -0.3953   17.1264 C   0  0  0  0  0  0  0  0  0  0  0  0
   14.1689    0.4219   16.3648 C   0  0  0  0  0  0  0  0  0  0  0  0
   13.5077   -0.0990   15.1630 C   0  0  0  0  0  0  0  0  0  0  0  0
   12.4238    0.7819   14.5915 C   0  0  0  0  0  0  0  0  0  0  0  0
   11.6145    0.1878   13.5441 N   0  0  0  0  0  0  0  0  0  0  0  0
   13.8790   -1.3045   14.6798 C   0  0  0  0  0  0  0  0  0  0  0  0
   14.9660   -1.9987   15.2990 C   0  0  0  0  0  0  0  0  0  0  0  0
   18.1268   -2.7258   13.4875 C   0  0  0  0  0  0  0  0  0  0  0  0
   18.7933   -4.1027   13.6860 C   0  0  0  0  0  0  0  0  0  0  0  0
   18.6806   -2.1438   12.1234 C   0  0  0  0  0  0  0  0  0  0  0  0
   19.9877   -1.3617   12.2722 C   0  0  0  0  0  0  0  0  0  0  0  0
   15.9730    0.1327   11.1007 N   0  0  0  0  0  0  0  0  0  0  0  0
   13.3742    0.5902   11.8025 H   0  0  0  0  0  0  0  0  0  0  0  0
   13.8822    1.8300   10.6676 H   0  0  0  0  0  0  0  0  0  0  0  0
   13.6837    2.2690   12.3543 H   0  0  0  0  0  0  0  0  0  0  0  0
   16.9456   -3.4244   10.8275 H   0  0  0  0  0  0  0  0  0  0  0  0
   15.8861   -2.1373   10.2931 H   0  0  0  0  0  0  0  0  0  0  0  0
   14.9421   -3.1988   12.3118 H   0  0  0  0  0  0  0  0  0  0  0  0
   15.2877   -1.5575   12.6190 H   0  0  0  0  0  0  0  0  0  0  0  0
   17.5154   -3.8923   16.1977 H   0  0  0  0  0  0  0  0  0  0  0  0
   16.3409   -2.5657   18.2113 H   0  0  0  0  0  0  0  0  0  0  0  0
   15.3591   -0.0975   18.0647 H   0  0  0  0  0  0  0  0  0  0  0  0
   14.0049    1.4541   16.6546 H   0  0  0  0  0  0  0  0  0  0  0  0
   11.7438    1.1193   15.3704 H   0  0  0  0  0  0  0  0  0  0  0  0
   12.8856    1.6976   14.2143 H   0  0  0  0  0  0  0  0  0  0  0  0
   10.8637    0.8229   13.2712 H   0  0  0  0  0  0  0  0  0  0  0  0
   11.1109   -0.6342   13.8917 H   0  0  0  0  0  0  0  0  0  0  0  0
   13.4119   -1.7238   13.7957 H   0  0  0  0  0  0  0  0  0  0  0  0
   18.4785   -2.0598   14.2870 H   0  0  0  0  0  0  0  0  0  0  0  0
   18.3966   -4.6677   14.5287 H   0  0  0  0  0  0  0  0  0  0  0  0
   19.8704   -3.9829   13.8452 H   0  0  0  0  0  0  0  0  0  0  0  0
   18.6649   -4.7397   12.8052 H   0  0  0  0  0  0  0  0  0  0  0  0
   18.9893   -3.0036   11.5095 H   0  0  0  0  0  0  0  0  0  0  0  0
   20.2612   -0.8647   11.3353 H   0  0  0  0  0  0  0  0  0  0  0  0
   19.9463   -0.6095   13.0627 H   0  0  0  0  0  0  0  0  0  0  0  0
   20.8050   -2.0417   12.5376 H   0  0  0  0  0  0  0  0  0  0  0  0
  1  2  1  0
  2  3  2  0
  3  4  1  0
  4  5  1  0
  5  6  1  0
  6  7  1  0
  7  8  1  0
  8  9  1  0
  9 10  1  0
 10 11  1  0
 11 12  2  0
 12 13  1  0
 13 14  1  0
 14 15  2  0
 15 16  1  0
 16 17  1  0
 17 18  1  0
 16 19  2  0
 19 20  1  0
  9 21  1  0
 21 22  1  0
 21 23  1  0
 23 24  1  0
  5 25  2  0
 25  2  1  0
 23  6  1  0
 20 10  2  0
 20 13  1  0
  1 26  1  0
  1 27  1  0
  1 28  1  0
  7 29  1  0
  7 30  1  0
  8 31  1  0
  8 32  1  0
 11 33  1  0
 12 34  1  0
 14 35  1  0
 15 36  1  0
 17 37  1  0
 17 38  1  0
 18 39  1  0
 18 40  1  0
 19 41  1  0
 21 42  1  0
 22 43  1  0
 22 44  1  0
 22 45  1  0
 23 46  1  0
 24 47  1  0
 24 48  1  0
 24 49  1  0
M  END
>  <Energy>  (688) 
134.64111590570266

>  <compound_id>  (688) 
1973

>  <target_id>  (688) 
1

>  <reference_id>  (688) 
66

>  <inspiration_ids>  (688) 
[31, 66]

>  <energy_score>  (688) 
-32.61957433472023

>  <distance_score>  (688) 
2.443798097924194

>  <path>  (688) 
/opt/xchem-fragalysis-2/maxwin/BulkDock/SCRATCH/505732/C1973-P66/C1973-P66.minimised.mol

>  <scratch_subdir>  (688) 
/opt/xchem-fragalysis-2/maxwin/BulkDock/SCRATCH/505732/C1973-P66

>  <fragmenstein_runtime>  (688) 
3.1812527179718018

>  <fragmenstein_outcome>  (688) 
too moved

>  <fragmenstein_mode>  (688) 
expansion

>  <fragmenstein_error>  (688) 


$$$$
C1975-P31
     RDKit          3D

 40 41  0  0  0  0  0  0  0  0999 V2000
   18.6308   -3.0175   13.1169 C   0  0  0  0  0  0  0  0  0  0  0  0
   18.6582   -3.1789   11.6014 C   0  0  0  0  0  0  0  0  0  0  0  0
   18.7101   -1.8921   10.7512 C   0  0  0  0  0  0  0  0  0  0  0  0
   19.7131   -0.7962   11.2147 C   0  0  0  0  0  0  0  0  0  0  0  0
   21.1451   -1.3231   11.3478 C   0  0  0  0  0  0  0  0  0  0  0  0
   22.0625   -0.3201   12.0553 C   0  0  0  0  0  0  0  0  0  0  0  0
   22.0896    0.9435   11.3523 N   0  0  0  0  0  0  0  0  0  0  0  0
   22.6660   -0.6880   13.0240 O   0  0  0  0  0  0  0  0  0  0  0  0
   19.8012    0.2506   10.1960 O   0  0  0  0  0  0  0  0  0  0  0  0
   18.5149    0.8595    9.9582 C   0  0  0  0  0  0  0  0  0  0  0  0
   17.4287   -0.1488    9.5016 C   0  0  0  0  0  0  0  0  0  0  0  0
   16.0846    0.5997    9.3421 C   0  0  0  0  0  0  0  0  0  0  0  0
   17.7532   -0.6731    8.1433 C   0  0  0  0  0  0  0  0  0  0  0  0
   17.9314   -1.1444    7.0965 N   0  0  0  0  0  0  0  0  0  0  0  0
   17.3498   -1.3083   10.4648 N   0  0  0  0  0  0  0  0  0  0  0  0
   16.5401   -1.1016   11.5420 C   0  0  0  0  0  0  0  0  0  0  0  0
   16.7015   -0.1675   12.4502 N   0  0  0  0  0  0  0  0  0  0  0  0
   15.6160   -0.2066   13.3234 C   0  0  0  0  0  0  0  0  0  0  0  0
   15.5534    0.7340   14.4631 C   0  0  0  0  0  0  0  0  0  0  0  0
   14.6322   -1.0822   13.1165 N   0  0  0  0  0  0  0  0  0  0  0  0
   15.0752   -1.9832   11.7904 S   0  0  0  0  0  0  0  0  0  0  0  0
   18.6966   -4.0035   13.5897 H   0  0  0  0  0  0  0  0  0  0  0  0
   17.7096   -2.5558   13.4734 H   0  0  0  0  0  0  0  0  0  0  0  0
   19.4721   -2.4248   13.4845 H   0  0  0  0  0  0  0  0  0  0  0  0
   17.8054   -3.7869   11.2828 H   0  0  0  0  0  0  0  0  0  0  0  0
   19.5454   -3.7792   11.3600 H   0  0  0  0  0  0  0  0  0  0  0  0
   19.0709   -2.2389    9.7722 H   0  0  0  0  0  0  0  0  0  0  0  0
   19.3916   -0.3268   12.1520 H   0  0  0  0  0  0  0  0  0  0  0  0
   21.5829   -1.5364   10.3647 H   0  0  0  0  0  0  0  0  0  0  0  0
   21.1796   -2.2485   11.9303 H   0  0  0  0  0  0  0  0  0  0  0  0
   21.3426    0.9431   10.6227 H   0  0  0  0  0  0  0  0  0  0  0  0
   21.5182    0.8613   10.4827 H   0  0  0  0  0  0  0  0  0  0  0  0
   18.2182    1.3814   10.8757 H   0  0  0  0  0  0  0  0  0  0  0  0
   18.6713    1.6288    9.1926 H   0  0  0  0  0  0  0  0  0  0  0  0
   15.7750    1.1098   10.2601 H   0  0  0  0  0  0  0  0  0  0  0  0
   15.2829   -0.0867    9.0473 H   0  0  0  0  0  0  0  0  0  0  0  0
   16.1524    1.3691    8.5624 H   0  0  0  0  0  0  0  0  0  0  0  0
   16.1481    0.3494   15.2964 H   0  0  0  0  0  0  0  0  0  0  0  0
   15.9588    1.7093   14.1758 H   0  0  0  0  0  0  0  0  0  0  0  0
   14.5234    0.8861   14.7995 H   0  0  0  0  0  0  0  0  0  0  0  0
  1  2  1  0
  2  3  1  0
  3  4  1  0
  4  5  1  0
  5  6  1  0
  6  7  1  0
  6  8  2  0
  4  9  1  0
  9 10  1  0
 10 11  1  0
 11 12  1  0
 11 13  1  0
 13 14  3  0
 11 15  1  0
 15 16  1  0
 16 17  2  0
 17 18  1  0
 18 19  1  0
 18 20  2  0
 20 21  1  0
 15  3  1  0
 21 16  1  0
  1 22  1  0
  1 23  1  0
  1 24  1  0
  2 25  1  0
  2 26  1  0
  3 27  1  0
  4 28  1  0
  5 29  1  0
  5 30  1  0
  7 31  1  0
  7 32  1  0
 10 33  1  0
 10 34  1  0
 12 35  1  0
 12 36  1  0
 12 37  1  0
 19 38  1  0
 19 39  1  0
 19 40  1  0
M  END
>  <Energy>  (689) 
239.51480288765242

>  <compound_id>  (689) 
1975

>  <target_id>  (689) 
1

>  <reference_id>  (689) 
31

>  <inspiration_ids>  (689) 
[31, 76]

>  <energy_score>  (689) 
96.95546831293177

>  <distance_score>  (689) 
4.602671643410628

>  <path>  (689) 
/opt/xchem-fragalysis-2/maxwin/BulkDock/SCRATCH/505732/C1975-P31/C1975-P31.minimised.mol

>  <scratch_subdir>  (689) 
/opt/xchem-fragalysis-2/maxwin/BulkDock/SCRATCH/505732/C1975-P31

>  <fragmenstein_runtime>  (689) 
3.9928975105285645

>  <fragmenstein_outcome>  (689) 
too moved

>  <fragmenstein_mode>  (689) 
expansion

>  <fragmenstein_error>  (689) 


$$$$
C1975-P76
     RDKit          3D

 40 41  0  0  0  0  0  0  0  0999 V2000
   19.6046   -3.8687   12.3248 C   0  0  0  0  0  0  0  0  0  0  0  0
   18.5959   -2.7533   12.5788 C   0  0  0  0  0  0  0  0  0  0  0  0
   18.6570   -1.6330   11.5169 C   0  0  0  0  0  0  0  0  0  0  0  0
   19.5066   -0.3912   11.9252 C   0  0  0  0  0  0  0  0  0  0  0  0
   20.9135   -0.7276   12.4222 C   0  0  0  0  0  0  0  0  0  0  0  0
   21.6558    0.5147   12.9350 C   0  0  0  0  0  0  0  0  0  0  0  0
   21.1639    0.9211   14.2403 N   0  0  0  0  0  0  0  0  0  0  0  0
   22.5230    0.9785   12.2489 O   0  0  0  0  0  0  0  0  0  0  0  0
   19.6437    0.4404   10.7557 O   0  0  0  0  0  0  0  0  0  0  0  0
   18.3768    0.9607   10.3323 C   0  0  0  0  0  0  0  0  0  0  0  0
   17.3290   -0.1356   10.0059 C   0  0  0  0  0  0  0  0  0  0  0  0
   15.9722    0.5693    9.7719 C   0  0  0  0  0  0  0  0  0  0  0  0
   17.6497   -0.8116    8.7171 C   0  0  0  0  0  0  0  0  0  0  0  0
   17.7637   -1.4102    7.7265 N   0  0  0  0  0  0  0  0  0  0  0  0
   17.2830   -1.1837   11.0946 N   0  0  0  0  0  0  0  0  0  0  0  0
   16.3670   -0.9916   12.0846 C   0  0  0  0  0  0  0  0  0  0  0  0
   16.4946   -0.1889   13.1170 N   0  0  0  0  0  0  0  0  0  0  0  0
   15.3168   -0.2425   13.8625 C   0  0  0  0  0  0  0  0  0  0  0  0
   15.1506    0.6062   15.0640 C   0  0  0  0  0  0  0  0  0  0  0  0
   14.3331   -1.0613   13.4910 N   0  0  0  0  0  0  0  0  0  0  0  0
   14.8492   -1.8232   12.1069 S   0  0  0  0  0  0  0  0  0  0  0  0
   19.5317   -4.6256   13.1125 H   0  0  0  0  0  0  0  0  0  0  0  0
   20.6333   -3.5025   12.3046 H   0  0  0  0  0  0  0  0  0  0  0  0
   19.4014   -4.3620   11.3685 H   0  0  0  0  0  0  0  0  0  0  0  0
   18.7392   -2.3414   13.5845 H   0  0  0  0  0  0  0  0  0  0  0  0
   17.6132   -3.2313   12.5802 H   0  0  0  0  0  0  0  0  0  0  0  0
   19.1155   -2.0624   10.6157 H   0  0  0  0  0  0  0  0  0  0  0  0
   18.9889    0.1914   12.6953 H   0  0  0  0  0  0  0  0  0  0  0  0
   21.5121   -1.1580   11.6097 H   0  0  0  0  0  0  0  0  0  0  0  0
   20.8999   -1.4565   13.2383 H   0  0  0  0  0  0  0  0  0  0  0  0
   20.4855    0.2165   14.5802 H   0  0  0  0  0  0  0  0  0  0  0  0
   20.3270    0.3593   14.4760 H   0  0  0  0  0  0  0  0  0  0  0  0
   18.0096    1.6242   11.1260 H   0  0  0  0  0  0  0  0  0  0  0  0
   18.5658    1.5901    9.4547 H   0  0  0  0  0  0  0  0  0  0  0  0
   15.6366    1.1319   10.6499 H   0  0  0  0  0  0  0  0  0  0  0  0
   15.1925   -0.1513    9.5067 H   0  0  0  0  0  0  0  0  0  0  0  0
   16.0384    1.2846    8.9420 H   0  0  0  0  0  0  0  0  0  0  0  0
   16.0387    1.2236   15.2312 H   0  0  0  0  0  0  0  0  0  0  0  0
   14.2907    1.2734   14.9486 H   0  0  0  0  0  0  0  0  0  0  0  0
   14.9952   -0.0123   15.9535 H   0  0  0  0  0  0  0  0  0  0  0  0
  1  2  1  0
  2  3  1  0
  3  4  1  0
  4  5  1  0
  5  6  1  0
  6  7  1  0
  6  8  2  0
  4  9  1  0
  9 10  1  0
 10 11  1  0
 11 12  1  0
 11 13  1  0
 13 14  3  0
 11 15  1  0
 15 16  1  0
 16 17  2  0
 17 18  1  0
 18 19  1  0
 18 20  2  0
 20 21  1  0
 15  3  1  0
 21 16  1  0
  1 22  1  0
  1 23  1  0
  1 24  1  0
  2 25  1  0
  2 26  1  0
  3 27  1  0
  4 28  1  0
  5 29  1  0
  5 30  1  0
  7 31  1  0
  7 32  1  0
 10 33  1  0
 10 34  1  0
 12 35  1  0
 12 36  1  0
 12 37  1  0
 19 38  1  0
 19 39  1  0
 19 40  1  0
M  END
>  <Energy>  (690) 
256.47495562381033

>  <compound_id>  (690) 
1975

>  <target_id>  (690) 
1

>  <reference_id>  (690) 
76

>  <inspiration_ids>  (690) 
[31, 76]

>  <energy_score>  (690) 
113.91562104909005

>  <distance_score>  (690) 
4.100477760826735

>  <path>  (690) 
/opt/xchem-fragalysis-2/maxwin/BulkDock/SCRATCH/505732/C1975-P76/C1975-P76.minimised.mol

>  <scratch_subdir>  (690) 
/opt/xchem-fragalysis-2/maxwin/BulkDock/SCRATCH/505732/C1975-P76

>  <fragmenstein_runtime>  (690) 
4.082332134246826

>  <fragmenstein_outcome>  (690) 
too moved

>  <fragmenstein_mode>  (690) 
expansion

>  <fragmenstein_error>  (690) 


$$$$
C1981-P31
     RDKit          3D

 42 44  0  0  0  0  0  0  0  0999 V2000
   11.4512    2.1766   13.2054 C   0  0  0  0  0  0  0  0  0  0  0  0
   12.8723    1.8974   13.5139 C   0  0  0  0  0  0  0  0  0  0  0  0
   13.5549    2.6716   14.3575 N   0  0  0  0  0  0  0  0  0  0  0  0
   15.1034    2.0564   14.4098 S   0  0  0  0  0  0  0  0  0  0  0  0
   14.7141    0.7205   13.4015 C   0  0  0  0  0  0  0  0  0  0  0  0
   15.5465   -0.3431   13.2788 N   0  0  0  0  0  0  0  0  0  0  0  0
   16.2644   -0.4671   11.9800 C   0  0  0  0  0  0  0  0  0  0  0  0
   15.3495   -0.8798   10.8408 C   0  0  0  0  0  0  0  0  0  0  0  0
   17.4490   -1.4452   12.1148 C   0  0  0  0  0  0  0  0  0  0  0  0
   18.2010   -1.6719   10.8015 C   0  0  0  0  0  0  0  0  0  0  0  0
   16.9736   -2.7102   12.5818 O   0  0  0  0  0  0  0  0  0  0  0  0
   16.3480   -2.5734   13.8728 C   0  0  0  0  0  0  0  0  0  0  0  0
   15.0926   -1.6250   13.9282 C   0  0  0  0  0  0  0  0  0  0  0  0
   14.8022   -1.4122   15.4320 C   0  0  0  0  0  0  0  0  0  0  0  0
   14.1240   -2.5860   16.1326 C   0  0  0  0  0  0  0  0  0  0  0  0
   12.7223   -2.8008   15.5854 C   0  0  0  0  0  0  0  0  0  0  0  0
   12.5296   -2.2799   14.1601 C   0  0  0  0  0  0  0  0  0  0  0  0
   13.7843   -2.1459   13.2595 C   0  0  0  0  0  0  0  0  0  0  0  0
   13.4966    0.8216   12.9205 N   0  0  0  0  0  0  0  0  0  0  0  0
   10.9609    2.7096   14.0262 H   0  0  0  0  0  0  0  0  0  0  0  0
   10.9043    1.2432   13.0374 H   0  0  0  0  0  0  0  0  0  0  0  0
   11.3738    2.7867   12.3003 H   0  0  0  0  0  0  0  0  0  0  0  0
   16.6839    0.5177   11.7302 H   0  0  0  0  0  0  0  0  0  0  0  0
   15.8451   -0.7381    9.8739 H   0  0  0  0  0  0  0  0  0  0  0  0
   15.0460   -1.9287   10.8899 H   0  0  0  0  0  0  0  0  0  0  0  0
   14.4562   -0.2552   10.8095 H   0  0  0  0  0  0  0  0  0  0  0  0
   18.1637   -1.0507   12.8495 H   0  0  0  0  0  0  0  0  0  0  0  0
   19.0975   -2.2734   10.9896 H   0  0  0  0  0  0  0  0  0  0  0  0
   17.6040   -2.2420   10.0826 H   0  0  0  0  0  0  0  0  0  0  0  0
   18.5105   -0.7252   10.3493 H   0  0  0  0  0  0  0  0  0  0  0  0
   17.1261   -2.1977   14.5526 H   0  0  0  0  0  0  0  0  0  0  0  0
   16.1049   -3.5635   14.2526 H   0  0  0  0  0  0  0  0  0  0  0  0
   14.1200   -0.5648   15.5195 H   0  0  0  0  0  0  0  0  0  0  0  0
   15.7291   -1.1534   15.9574 H   0  0  0  0  0  0  0  0  0  0  0  0
   14.7233   -3.4955   16.0282 H   0  0  0  0  0  0  0  0  0  0  0  0
   14.0618   -2.3940   17.2101 H   0  0  0  0  0  0  0  0  0  0  0  0
   11.9951   -2.2921   16.2263 H   0  0  0  0  0  0  0  0  0  0  0  0
   12.4546   -3.8555   15.6709 H   0  0  0  0  0  0  0  0  0  0  0  0
   11.7807   -2.8955   13.6485 H   0  0  0  0  0  0  0  0  0  0  0  0
   12.0761   -1.2821   14.2360 H   0  0  0  0  0  0  0  0  0  0  0  0
   13.9903   -3.0539   12.6931 H   0  0  0  0  0  0  0  0  0  0  0  0
   13.4623   -1.4812   12.4587 H   0  0  0  0  0  0  0  0  0  0  0  0
  1  2  1  0
  2  3  2  0
  3  4  1  0
  4  5  1  0
  5  6  1  0
  6  7  1  0
  7  8  1  0
  7  9  1  0
  9 10  1  0
  9 11  1  0
 11 12  1  0
 12 13  1  0
 13 14  1  0
 14 15  1  0
 15 16  1  0
 16 17  1  0
 17 18  1  0
  5 19  2  0
 19  2  1  0
 13  6  1  0
 18 13  1  0
  1 20  1  0
  1 21  1  0
  1 22  1  0
  7 23  1  0
  8 24  1  0
  8 25  1  0
  8 26  1  0
  9 27  1  0
 10 28  1  0
 10 29  1  0
 10 30  1  0
 12 31  1  0
 12 32  1  0
 14 33  1  0
 14 34  1  0
 15 35  1  0
 15 36  1  0
 16 37  1  0
 16 38  1  0
 17 39  1  0
 17 40  1  0
 18 41  1  0
 18 42  1  0
M  END
>  <Energy>  (691) 
103.50756079379725

>  <compound_id>  (691) 
1981

>  <target_id>  (691) 
1

>  <reference_id>  (691) 
31

>  <inspiration_ids>  (691) 
[31, 97]

>  <energy_score>  (691) 
-91.6503790811359

>  <distance_score>  (691) 
2.0916717027258835

>  <path>  (691) 
/opt/xchem-fragalysis-2/maxwin/BulkDock/SCRATCH/505732/C1981-P31/C1981-P31.minimised.mol

>  <scratch_subdir>  (691) 
/opt/xchem-fragalysis-2/maxwin/BulkDock/SCRATCH/505732/C1981-P31

>  <fragmenstein_runtime>  (691) 
21.661006689071655

>  <fragmenstein_outcome>  (691) 
too moved

>  <fragmenstein_mode>  (691) 
expansion

>  <fragmenstein_error>  (691) 


$$$$
C1981-P97
     RDKit          3D

 42 44  0  0  0  0  0  0  0  0999 V2000
   11.6580    2.4618   15.0213 C   0  0  0  0  0  0  0  0  0  0  0  0
   12.8734    2.0821   14.2667 C   0  0  0  0  0  0  0  0  0  0  0  0
   13.3152    2.8425   13.2714 N   0  0  0  0  0  0  0  0  0  0  0  0
   14.6788    2.1095   12.6830 S   0  0  0  0  0  0  0  0  0  0  0  0
   14.5652    0.7563   13.7584 C   0  0  0  0  0  0  0  0  0  0  0  0
   15.3717   -0.3547   13.7305 N   0  0  0  0  0  0  0  0  0  0  0  0
   16.0341   -0.6704   12.4175 C   0  0  0  0  0  0  0  0  0  0  0  0
   15.0282   -1.2025   11.3982 C   0  0  0  0  0  0  0  0  0  0  0  0
   17.1991   -1.6503   12.6014 C   0  0  0  0  0  0  0  0  0  0  0  0
   17.9096   -1.9773   11.2810 C   0  0  0  0  0  0  0  0  0  0  0  0
   16.6855   -2.8526   13.1669 O   0  0  0  0  0  0  0  0  0  0  0  0
   16.1163   -2.6193   14.4662 C   0  0  0  0  0  0  0  0  0  0  0  0
   14.9535   -1.5411   14.5731 C   0  0  0  0  0  0  0  0  0  0  0  0
   14.8801   -1.2044   16.0980 C   0  0  0  0  0  0  0  0  0  0  0  0
   14.4536   -2.3983   16.9651 C   0  0  0  0  0  0  0  0  0  0  0  0
   13.3032   -3.2144   16.3820 C   0  0  0  0  0  0  0  0  0  0  0  0
   12.5924   -2.5102   15.2376 C   0  0  0  0  0  0  0  0  0  0  0  0
   13.5275   -2.0141   14.1214 C   0  0  0  0  0  0  0  0  0  0  0  0
   13.5637    0.9392   14.5952 N   0  0  0  0  0  0  0  0  0  0  0  0
   11.8223    3.3950   15.5688 H   0  0  0  0  0  0  0  0  0  0  0  0
   11.3891    1.6857   15.7449 H   0  0  0  0  0  0  0  0  0  0  0  0
   10.8096    2.5992   14.3433 H   0  0  0  0  0  0  0  0  0  0  0  0
   16.4854    0.2438   12.0136 H   0  0  0  0  0  0  0  0  0  0  0  0
   14.0958   -0.6331   11.4031 H   0  0  0  0  0  0  0  0  0  0  0  0
   15.4339   -1.1244   10.3833 H   0  0  0  0  0  0  0  0  0  0  0  0
   14.7779   -2.2546   11.5571 H   0  0  0  0  0  0  0  0  0  0  0  0
   17.9400   -1.2236   13.2904 H   0  0  0  0  0  0  0  0  0  0  0  0
   18.7899   -2.5981   11.4823 H   0  0  0  0  0  0  0  0  0  0  0  0
   17.2738   -2.5660   10.6118 H   0  0  0  0  0  0  0  0  0  0  0  0
   18.2374   -1.0691   10.7671 H   0  0  0  0  0  0  0  0  0  0  0  0
   16.9532   -2.3161   15.1104 H   0  0  0  0  0  0  0  0  0  0  0  0
   15.7887   -3.5865   14.8517 H   0  0  0  0  0  0  0  0  0  0  0  0
   14.1676   -0.4021   16.3059 H   0  0  0  0  0  0  0  0  0  0  0  0
   15.8462   -0.8218   16.4522 H   0  0  0  0  0  0  0  0  0  0  0  0
   15.3106   -3.0597   17.1417 H   0  0  0  0  0  0  0  0  0  0  0  0
   14.1756   -2.0209   17.9550 H   0  0  0  0  0  0  0  0  0  0  0  0
   12.5860   -3.4545   17.1736 H   0  0  0  0  0  0  0  0  0  0  0  0
   13.6941   -4.1791   16.0489 H   0  0  0  0  0  0  0  0  0  0  0  0
   11.8257   -3.1654   14.8085 H   0  0  0  0  0  0  0  0  0  0  0  0
   12.0522   -1.6463   15.6476 H   0  0  0  0  0  0  0  0  0  0  0  0
   13.6048   -2.7352   13.3116 H   0  0  0  0  0  0  0  0  0  0  0  0
   12.9706   -1.2097   13.6270 H   0  0  0  0  0  0  0  0  0  0  0  0
  1  2  1  0
  2  3  2  0
  3  4  1  0
  4  5  1  0
  5  6  1  0
  6  7  1  0
  7  8  1  0
  7  9  1  0
  9 10  1  0
  9 11  1  0
 11 12  1  0
 12 13  1  0
 13 14  1  0
 14 15  1  0
 15 16  1  0
 16 17  1  0
 17 18  1  0
  5 19  2  0
 19  2  1  0
 13  6  1  0
 18 13  1  0
  1 20  1  0
  1 21  1  0
  1 22  1  0
  7 23  1  0
  8 24  1  0
  8 25  1  0
  8 26  1  0
  9 27  1  0
 10 28  1  0
 10 29  1  0
 10 30  1  0
 12 31  1  0
 12 32  1  0
 14 33  1  0
 14 34  1  0
 15 35  1  0
 15 36  1  0
 16 37  1  0
 16 38  1  0
 17 39  1  0
 17 40  1  0
 18 41  1  0
 18 42  1  0
M  END
>  <Energy>  (692) 
95.844505038381982

>  <compound_id>  (692) 
1981

>  <target_id>  (692) 
1

>  <reference_id>  (692) 
97

>  <inspiration_ids>  (692) 
[31, 97]

>  <energy_score>  (692) 
-99.31343483655078

>  <distance_score>  (692) 
2.0517884808369513

>  <path>  (692) 
/opt/xchem-fragalysis-2/maxwin/BulkDock/SCRATCH/505732/C1981-P97/C1981-P97.minimised.mol

>  <scratch_subdir>  (692) 
/opt/xchem-fragalysis-2/maxwin/BulkDock/SCRATCH/505732/C1981-P97

>  <fragmenstein_runtime>  (692) 
20.665961742401123

>  <fragmenstein_outcome>  (692) 
too moved

>  <fragmenstein_mode>  (692) 
expansion

>  <fragmenstein_error>  (692) 


$$$$
C1985-P31
     RDKit          3D

 39 41  0  0  0  0  0  0  0  0999 V2000
   13.0167    3.9749   15.7379 C   0  0  0  0  0  0  0  0  0  0  0  0
   12.5343    2.6462   15.3001 C   0  0  0  0  0  0  0  0  0  0  0  0
   11.2627    2.4698   14.9428 N   0  0  0  0  0  0  0  0  0  0  0  0
   11.1271    0.8864   14.4474 S   0  0  0  0  0  0  0  0  0  0  0  0
   12.7882    0.4872   14.8276 C   0  0  0  0  0  0  0  0  0  0  0  0
   13.5026   -0.7608   14.2576 C   0  0  0  0  0  0  0  0  0  0  0  0
   14.2250   -0.1055   13.0364 C   0  0  0  0  0  0  0  0  0  0  0  0
   14.1091    1.1047   12.8162 O   0  0  0  0  0  0  0  0  0  0  0  0
   15.0589   -0.8254   12.0906 C   0  0  0  0  0  0  0  0  0  0  0  0
   15.7057   -0.2330   10.9774 C   0  0  0  0  0  0  0  0  0  0  0  0
   16.4365   -1.0989   10.2725 N   0  0  0  0  0  0  0  0  0  0  0  0
   16.2973   -2.2433   10.9548 N   0  0  0  0  0  0  0  0  0  0  0  0
   15.4337   -2.1413   12.0045 C   0  0  0  0  0  0  0  0  0  0  0  0
   12.4765   -1.8277   13.8339 C   0  0  0  0  0  0  0  0  0  0  0  0
   11.7755   -2.4965   15.0154 C   0  0  0  0  0  0  0  0  0  0  0  0
   12.4556   -2.3199   16.2523 O   0  0  0  0  0  0  0  0  0  0  0  0
   13.8657   -2.5169   16.1856 C   0  0  0  0  0  0  0  0  0  0  0  0
   14.4551   -2.6408   17.5824 C   0  0  0  0  0  0  0  0  0  0  0  0
   14.5265   -1.5418   15.1616 C   0  0  0  0  0  0  0  0  0  0  0  0
   15.8468   -0.8266   15.4848 C   0  0  0  0  0  0  0  0  0  0  0  0
   13.3910    1.5526   15.3338 N   0  0  0  0  0  0  0  0  0  0  0  0
   14.1059    3.9781   15.8450 H   0  0  0  0  0  0  0  0  0  0  0  0
   12.5786    4.2396   16.7052 H   0  0  0  0  0  0  0  0  0  0  0  0
   12.7463    4.7456   15.0093 H   0  0  0  0  0  0  0  0  0  0  0  0
   15.6684    0.8038   10.6627 H   0  0  0  0  0  0  0  0  0  0  0  0
   16.7962   -3.0680   10.6328 H   0  0  0  0  0  0  0  0  0  0  0  0
   15.2014   -3.0146   12.5824 H   0  0  0  0  0  0  0  0  0  0  0  0
   12.9696   -2.6061   13.2465 H   0  0  0  0  0  0  0  0  0  0  0  0
   11.7306   -1.4354   13.1506 H   0  0  0  0  0  0  0  0  0  0  0  0
   10.7726   -2.0783   15.1466 H   0  0  0  0  0  0  0  0  0  0  0  0
   11.6307   -3.5622   14.8303 H   0  0  0  0  0  0  0  0  0  0  0  0
   13.9907   -3.5329   15.8069 H   0  0  0  0  0  0  0  0  0  0  0  0
   14.3695   -1.7390   18.1788 H   0  0  0  0  0  0  0  0  0  0  0  0
   15.5047   -2.9468   17.5503 H   0  0  0  0  0  0  0  0  0  0  0  0
   13.8997   -3.3988   18.1453 H   0  0  0  0  0  0  0  0  0  0  0  0
   14.9377   -2.3005   14.4886 H   0  0  0  0  0  0  0  0  0  0  0  0
   15.7496    0.2618   15.4789 H   0  0  0  0  0  0  0  0  0  0  0  0
   16.2879   -1.1456   16.4315 H   0  0  0  0  0  0  0  0  0  0  0  0
   16.5979   -1.0506   14.7164 H   0  0  0  0  0  0  0  0  0  0  0  0
  1  2  1  0
  2  3  2  0
  3  4  1  0
  4  5  1  0
  5  6  1  0
  6  7  1  0
  7  8  2  0
  7  9  1  0
  9 10  1  0
 10 11  2  0
 11 12  1  0
 12 13  1  0
  6 14  1  0
 14 15  1  0
 15 16  1  0
 16 17  1  0
 17 18  1  0
 17 19  1  0
 19 20  1  0
  5 21  2  0
 21  2  1  0
 19  6  1  0
 13  9  2  0
  1 22  1  0
  1 23  1  0
  1 24  1  0
 10 25  1  0
 12 26  1  0
 13 27  1  0
 14 28  1  0
 14 29  1  0
 15 30  1  0
 15 31  1  0
 17 32  1  0
 18 33  1  0
 18 34  1  0
 18 35  1  0
 19 36  1  0
 20 37  1  0
 20 38  1  0
 20 39  1  0
M  END
>  <Energy>  (693) 
73.511414923727486

>  <compound_id>  (693) 
1985

>  <target_id>  (693) 
1

>  <reference_id>  (693) 
31

>  <inspiration_ids>  (693) 
[31, 111]

>  <energy_score>  (693) 
-32.08472629911361

>  <distance_score>  (693) 
1.3932176302775567

>  <path>  (693) 
/opt/xchem-fragalysis-2/maxwin/BulkDock/SCRATCH/505732/C1985-P31/C1985-P31.minimised.mol

>  <scratch_subdir>  (693) 
/opt/xchem-fragalysis-2/maxwin/BulkDock/SCRATCH/505732/C1985-P31

>  <fragmenstein_runtime>  (693) 
2.345567226409912

>  <fragmenstein_outcome>  (693) 
too moved

>  <fragmenstein_mode>  (693) 
expansion

>  <fragmenstein_error>  (693) 


$$$$
C1985-P111
     RDKit          3D

 39 41  0  0  0  0  0  0  0  0999 V2000
   12.2826    3.4518   17.5794 C   0  0  0  0  0  0  0  0  0  0  0  0
   12.0184    2.3488   16.6267 C   0  0  0  0  0  0  0  0  0  0  0  0
   10.9509    2.3790   15.8295 N   0  0  0  0  0  0  0  0  0  0  0  0
   11.0528    1.0329   14.8552 S   0  0  0  0  0  0  0  0  0  0  0  0
   12.4947    0.4329   15.6184 C   0  0  0  0  0  0  0  0  0  0  0  0
   13.3393   -0.7198   15.0342 C   0  0  0  0  0  0  0  0  0  0  0  0
   14.3383    0.0216   14.0973 C   0  0  0  0  0  0  0  0  0  0  0  0
   14.6321    1.2026   14.2934 O   0  0  0  0  0  0  0  0  0  0  0  0
   14.9403   -0.6433   12.9473 C   0  0  0  0  0  0  0  0  0  0  0  0
   15.1544   -0.0768   11.6698 C   0  0  0  0  0  0  0  0  0  0  0  0
   15.7098   -0.9335   10.8085 N   0  0  0  0  0  0  0  0  0  0  0  0
   15.9064   -2.0380   11.5451 N   0  0  0  0  0  0  0  0  0  0  0  0
   15.4796   -1.9068   12.8362 C   0  0  0  0  0  0  0  0  0  0  0  0
   12.4445   -1.7019   14.2354 C   0  0  0  0  0  0  0  0  0  0  0  0
   11.4933   -2.4788   15.1384 C   0  0  0  0  0  0  0  0  0  0  0  0
   12.0067   -2.6124   16.4610 O   0  0  0  0  0  0  0  0  0  0  0  0
   13.4093   -2.8517   16.4923 C   0  0  0  0  0  0  0  0  0  0  0  0
   13.7942   -3.4647   17.8316 C   0  0  0  0  0  0  0  0  0  0  0  0
   14.1636   -1.5590   16.0862 C   0  0  0  0  0  0  0  0  0  0  0  0
   14.7358   -0.7620   17.2649 C   0  0  0  0  0  0  0  0  0  0  0  0
   12.8559    1.2413   16.5994 N   0  0  0  0  0  0  0  0  0  0  0  0
   11.3595    3.7730   18.0721 H   0  0  0  0  0  0  0  0  0  0  0  0
   12.9860    3.1350   18.3558 H   0  0  0  0  0  0  0  0  0  0  0  0
   12.7143    4.3097   17.0551 H   0  0  0  0  0  0  0  0  0  0  0  0
   14.9120    0.9249   11.3350 H   0  0  0  0  0  0  0  0  0  0  0  0
   16.3368   -2.8488   11.1096 H   0  0  0  0  0  0  0  0  0  0  0  0
   15.6160   -2.7202   13.5321 H   0  0  0  0  0  0  0  0  0  0  0  0
   13.0668   -2.4414   13.7243 H   0  0  0  0  0  0  0  0  0  0  0  0
   11.8940   -1.2173   13.4248 H   0  0  0  0  0  0  0  0  0  0  0  0
   10.5265   -1.9734   15.2181 H   0  0  0  0  0  0  0  0  0  0  0  0
   11.2949   -3.4737   14.7272 H   0  0  0  0  0  0  0  0  0  0  0  0
   13.6254   -3.6279   15.7517 H   0  0  0  0  0  0  0  0  0  0  0  0
   13.6290   -2.7853   18.6684 H   0  0  0  0  0  0  0  0  0  0  0  0
   14.8449   -3.7705   17.8363 H   0  0  0  0  0  0  0  0  0  0  0  0
   13.1745   -4.3444   18.0314 H   0  0  0  0  0  0  0  0  0  0  0  0
   15.0682   -1.9250   15.5836 H   0  0  0  0  0  0  0  0  0  0  0  0
   13.9662   -0.4883   17.9907 H   0  0  0  0  0  0  0  0  0  0  0  0
   15.4916   -1.3495   17.7981 H   0  0  0  0  0  0  0  0  0  0  0  0
   15.2408    0.1467   16.9214 H   0  0  0  0  0  0  0  0  0  0  0  0
  1  2  1  0
  2  3  2  0
  3  4  1  0
  4  5  1  0
  5  6  1  0
  6  7  1  0
  7  8  2  0
  7  9  1  0
  9 10  1  0
 10 11  2  0
 11 12  1  0
 12 13  1  0
  6 14  1  0
 14 15  1  0
 15 16  1  0
 16 17  1  0
 17 18  1  0
 17 19  1  0
 19 20  1  0
  5 21  2  0
 21  2  1  0
 19  6  1  0
 13  9  2  0
  1 22  1  0
  1 23  1  0
  1 24  1  0
 10 25  1  0
 12 26  1  0
 13 27  1  0
 14 28  1  0
 14 29  1  0
 15 30  1  0
 15 31  1  0
 17 32  1  0
 18 33  1  0
 18 34  1  0
 18 35  1  0
 19 36  1  0
 20 37  1  0
 20 38  1  0
 20 39  1  0
M  END
>  <Energy>  (694) 
55.006322537149984

>  <compound_id>  (694) 
1985

>  <target_id>  (694) 
1

>  <reference_id>  (694) 
111

>  <inspiration_ids>  (694) 
[31, 111]

>  <energy_score>  (694) 
-50.589818685690176

>  <distance_score>  (694) 
0.7849518152005722

>  <path>  (694) 
/opt/xchem-fragalysis-2/maxwin/BulkDock/SCRATCH/505732/C1985-P111/C1985-P111.minimised.mol

>  <scratch_subdir>  (694) 
/opt/xchem-fragalysis-2/maxwin/BulkDock/SCRATCH/505732/C1985-P111

>  <fragmenstein_runtime>  (694) 
2.0953197479248047

>  <fragmenstein_outcome>  (694) 
acceptable

>  <fragmenstein_mode>  (694) 
expansion

>  <fragmenstein_error>  (694) 


$$$$
C1986-P31
     RDKit          3D

 73 78  0  0  0  0  0  0  0  0999 V2000
   12.7030    2.6531   15.0347 C   0  0  0  0  0  0  0  0  0  0  0  0
   13.3476    1.3703   14.5219 C   0  0  0  0  0  0  0  0  0  0  0  0
   12.6876    0.2514   15.1330 O   0  0  0  0  0  0  0  0  0  0  0  0
   13.3812   -0.9757   14.8205 C   0  0  0  0  0  0  0  0  0  0  0  0
   13.3039   -1.2367   13.3205 C   0  0  0  0  0  0  0  0  0  0  0  0
   13.8310   -0.0698   12.5720 N   0  0  0  0  0  0  0  0  0  0  0  0
   15.1448   -0.1755   12.1913 C   0  0  0  0  0  0  0  0  0  0  0  0
   15.6847   -1.2685   11.6933 N   0  0  0  0  0  0  0  0  0  0  0  0
   17.0107   -1.0226   11.3458 C   0  0  0  0  0  0  0  0  0  0  0  0
   17.7979   -2.0183   10.5398 C   0  0  0  0  0  0  0  0  0  0  0  0
   17.6103   -1.6979    9.1240 N   0  0  0  0  0  0  0  0  0  0  0  0
   18.4821   -2.4320    8.2400 C   0  0  0  0  0  0  0  0  0  0  0  0
   17.8165   -2.3886    6.9543 N   0  0  0  0  0  0  0  0  0  0  0  0
   18.3369   -2.9662    5.9274 C   0  0  0  0  0  0  0  0  0  0  0  0
   19.5122   -3.6781    5.8878 N   0  0  0  0  0  0  0  0  0  0  0  0
   20.0142   -4.2599    4.7506 C   0  0  0  0  0  0  0  0  0  0  0  0
   19.4240   -4.2054    3.5444 C   0  0  0  0  0  0  0  0  0  0  0  0
   19.9723   -4.7856    2.4307 N   0  0  0  0  0  0  0  0  0  0  0  0
   21.2162   -5.5058    2.2492 C   0  0  0  0  0  0  0  0  0  0  0  0
   22.0466   -5.8463    3.0442 O   0  0  0  0  0  0  0  0  0  0  0  0
   21.3903   -5.8154    0.7644 C   0  0  0  0  0  0  0  0  0  0  0  0
   22.4932   -6.8339    0.4617 C   0  0  0  0  0  0  0  0  0  0  0  0
   22.1155   -8.2829    0.9570 C   0  0  0  0  0  0  0  0  0  0  0  0
   22.5062   -8.8602    2.1808 C   0  0  0  0  0  0  0  0  0  0  0  0
   21.9050  -10.0909    2.1693 C   0  0  0  0  0  0  0  0  0  0  0  0
   21.1955  -10.2417    1.0236 O   0  0  0  0  0  0  0  0  0  0  0  0
   21.3137   -9.0929    0.2569 N   0  0  0  0  0  0  0  0  0  0  0  0
   22.9655   -6.8128   -1.0200 C   0  0  0  0  0  0  0  0  0  0  0  0
   24.3697   -6.8477   -0.5668 N   0  0  0  0  0  0  0  0  0  0  0  0
   23.9462   -6.3809    0.7677 C   0  0  0  0  0  0  0  0  0  0  0  0
   18.1267   -3.4680    3.4618 C   0  0  0  0  0  0  0  0  0  0  0  0
   17.3948   -3.3416    2.2663 C   0  0  0  0  0  0  0  0  0  0  0  0
   16.1842   -2.6370    2.2251 C   0  0  0  0  0  0  0  0  0  0  0  0
   15.6746   -2.0435    3.3752 C   0  0  0  0  0  0  0  0  0  0  0  0
   16.3749   -2.1521    4.5726 C   0  0  0  0  0  0  0  0  0  0  0  0
   17.5890   -2.8568    4.6211 C   0  0  0  0  0  0  0  0  0  0  0  0
   17.5549    0.1634   11.6341 N   0  0  0  0  0  0  0  0  0  0  0  0
   16.3426    1.0835   12.2900 S   0  0  0  0  0  0  0  0  0  0  0  0
   13.2702    1.2385   12.9858 C   0  0  0  0  0  0  0  0  0  0  0  0
   11.8420    1.3985   12.4518 C   0  0  0  0  0  0  0  0  0  0  0  0
   12.9771    2.8270   16.0789 H   0  0  0  0  0  0  0  0  0  0  0  0
   13.0363    3.5240   14.4619 H   0  0  0  0  0  0  0  0  0  0  0  0
   11.6099    2.5974   15.0069 H   0  0  0  0  0  0  0  0  0  0  0  0
   14.3980    1.3740   14.8396 H   0  0  0  0  0  0  0  0  0  0  0  0
   14.4194   -0.9149   15.1640 H   0  0  0  0  0  0  0  0  0  0  0  0
   12.8905   -1.7866   15.3676 H   0  0  0  0  0  0  0  0  0  0  0  0
   13.8173   -2.1686   13.0622 H   0  0  0  0  0  0  0  0  0  0  0  0
   12.2498   -1.3814   13.0761 H   0  0  0  0  0  0  0  0  0  0  0  0
   18.8567   -1.9612   10.8196 H   0  0  0  0  0  0  0  0  0  0  0  0
   17.4396   -3.0304   10.7564 H   0  0  0  0  0  0  0  0  0  0  0  0
   17.7529   -0.7011    8.9724 H   0  0  0  0  0  0  0  0  0  0  0  0
   19.4685   -1.9564    8.1984 H   0  0  0  0  0  0  0  0  0  0  0  0
   18.6066   -3.4680    8.5711 H   0  0  0  0  0  0  0  0  0  0  0  0
   20.0204   -3.8548    6.7436 H   0  0  0  0  0  0  0  0  0  0  0  0
   20.9518   -4.7785    4.9228 H   0  0  0  0  0  0  0  0  0  0  0  0
   19.4829   -4.7451    1.5479 H   0  0  0  0  0  0  0  0  0  0  0  0
   21.6106   -4.8596    0.2713 H   0  0  0  0  0  0  0  0  0  0  0  0
   20.4396   -6.1797    0.3550 H   0  0  0  0  0  0  0  0  0  0  0  0
   23.1178   -8.4402    2.9652 H   0  0  0  0  0  0  0  0  0  0  0  0
   21.8717  -10.9248    2.8541 H   0  0  0  0  0  0  0  0  0  0  0  0
   22.6781   -7.6585   -1.6524 H   0  0  0  0  0  0  0  0  0  0  0  0
   22.7211   -5.8961   -1.5709 H   0  0  0  0  0  0  0  0  0  0  0  0
   24.7551   -7.7945   -0.5561 H   0  0  0  0  0  0  0  0  0  0  0  0
   24.4648   -6.8684    1.5981 H   0  0  0  0  0  0  0  0  0  0  0  0
   24.0696   -5.2980    0.8944 H   0  0  0  0  0  0  0  0  0  0  0  0
   17.7349   -3.7830    1.3359 H   0  0  0  0  0  0  0  0  0  0  0  0
   15.6362   -2.5533    1.2893 H   0  0  0  0  0  0  0  0  0  0  0  0
   14.7339   -1.4966    3.3463 H   0  0  0  0  0  0  0  0  0  0  0  0
   15.9667   -1.6841    5.4658 H   0  0  0  0  0  0  0  0  0  0  0  0
   13.8309    2.0655   12.5342 H   0  0  0  0  0  0  0  0  0  0  0  0
   11.4439    2.3942   12.6719 H   0  0  0  0  0  0  0  0  0  0  0  0
   11.8301    1.2962   11.3644 H   0  0  0  0  0  0  0  0  0  0  0  0
   11.1530    0.6639   12.8784 H   0  0  0  0  0  0  0  0  0  0  0  0
  1  2  1  0
  2  3  1  0
  3  4  1  0
  4  5  1  0
  5  6  1  0
  6  7  1  0
  7  8  2  0
  8  9  1  0
  9 10  1  0
 10 11  1  0
 11 12  1  0
 12 13  1  0
 13 14  2  3
 14 15  1  0
 15 16  1  0
 16 17  2  0
 17 18  1  0
 18 19  1  0
 19 20  2  0
 19 21  1  0
 21 22  1  0
 22 23  1  0
 23 24  1  0
 24 25  2  0
 25 26  1  0
 26 27  1  0
 22 28  1  0
 28 29  1  0
 29 30  1  0
 17 31  1  0
 31 32  2  0
 32 33  1  0
 33 34  2  0
 34 35  1  0
 35 36  2  0
  9 37  2  0
 37 38  1  0
  6 39  1  0
 39 40  1  0
 39  2  1  0
 38  7  1  0
 36 14  1  0
 30 22  1  0
 36 31  1  0
 27 23  2  0
  1 41  1  0
  1 42  1  0
  1 43  1  0
  2 44  1  0
  4 45  1  0
  4 46  1  0
  5 47  1  0
  5 48  1  0
 10 49  1  0
 10 50  1  0
 11 51  1  0
 12 52  1  0
 12 53  1  0
 15 54  1  0
 16 55  1  0
 18 56  1  0
 21 57  1  0
 21 58  1  0
 24 59  1  0
 25 60  1  0
 28 61  1  0
 28 62  1  0
 29 63  1  0
 30 64  1  0
 30 65  1  0
 32 66  1  0
 33 67  1  0
 34 68  1  0
 35 69  1  0
 39 70  1  0
 40 71  1  0
 40 72  1  0
 40 73  1  0
M  END
>  <Energy>  (695) 
87.11251479176083

>  <compound_id>  (695) 
1986

>  <target_id>  (695) 
1

>  <reference_id>  (695) 
31

>  <inspiration_ids>  (695) 
[31, 113]

>  <energy_score>  (695) 
-130.7397302945041

>  <distance_score>  (695) 
2.56875626804666

>  <path>  (695) 
/opt/xchem-fragalysis-2/maxwin/BulkDock/SCRATCH/505732/C1986-P31/C1986-P31.minimised.mol

>  <scratch_subdir>  (695) 
/opt/xchem-fragalysis-2/maxwin/BulkDock/SCRATCH/505732/C1986-P31

>  <fragmenstein_runtime>  (695) 
56.022560596466064

>  <fragmenstein_outcome>  (695) 
too moved

>  <fragmenstein_mode>  (695) 
expansion

>  <fragmenstein_error>  (695) 


$$$$
C1986-P113
     RDKit          3D

 73 78  0  0  0  0  0  0  0  0999 V2000
   10.9366    0.3642   15.1194 C   0  0  0  0  0  0  0  0  0  0  0  0
   12.3881    0.0269   15.4333 C   0  0  0  0  0  0  0  0  0  0  0  0
   12.4025   -0.7011   16.6790 O   0  0  0  0  0  0  0  0  0  0  0  0
   13.7568   -0.9053   17.1068 C   0  0  0  0  0  0  0  0  0  0  0  0
   14.5585   -1.7188   16.0891 C   0  0  0  0  0  0  0  0  0  0  0  0
   14.4744   -1.0976   14.7596 N   0  0  0  0  0  0  0  0  0  0  0  0
   15.4399   -1.3397   13.8209 C   0  0  0  0  0  0  0  0  0  0  0  0
   15.2699   -1.2877   12.5134 N   0  0  0  0  0  0  0  0  0  0  0  0
   16.4687   -1.6100   11.8792 C   0  0  0  0  0  0  0  0  0  0  0  0
   16.5499   -1.7679   10.3843 C   0  0  0  0  0  0  0  0  0  0  0  0
   17.6338   -0.9341    9.8372 N   0  0  0  0  0  0  0  0  0  0  0  0
   18.3230   -1.5824    8.7326 C   0  0  0  0  0  0  0  0  0  0  0  0
   17.4952   -1.6868    7.5339 N   0  0  0  0  0  0  0  0  0  0  0  0
   18.1070   -1.8625    6.4020 C   0  0  0  0  0  0  0  0  0  0  0  0
   19.4573   -2.0721    6.2201 N   0  0  0  0  0  0  0  0  0  0  0  0
   20.0450   -2.2926    5.0010 C   0  0  0  0  0  0  0  0  0  0  0  0
   19.3862   -2.3190    3.8318 C   0  0  0  0  0  0  0  0  0  0  0  0
   20.0251   -2.5156    2.6363 N   0  0  0  0  0  0  0  0  0  0  0  0
   21.4218   -2.7490    2.3329 C   0  0  0  0  0  0  0  0  0  0  0  0
   22.3876   -2.7515    3.0439 O   0  0  0  0  0  0  0  0  0  0  0  0
   21.5761   -2.9522    0.8280 C   0  0  0  0  0  0  0  0  0  0  0  0
   22.8685   -3.6712    0.4319 C   0  0  0  0  0  0  0  0  0  0  0  0
   22.8725   -5.1749    0.9079 C   0  0  0  0  0  0  0  0  0  0  0  0
   23.4508   -5.6574    2.0986 C   0  0  0  0  0  0  0  0  0  0  0  0
   23.1552   -6.9951    2.0875 C   0  0  0  0  0  0  0  0  0  0  0  0
   22.4404   -7.2953    0.9746 O   0  0  0  0  0  0  0  0  0  0  0  0
   22.2446   -6.1421    0.2304 N   0  0  0  0  0  0  0  0  0  0  0  0
   23.2289   -3.5130   -1.0726 C   0  0  0  0  0  0  0  0  0  0  0  0
   24.6305   -3.2356   -0.7004 N   0  0  0  0  0  0  0  0  0  0  0  0
   24.1926   -2.8947    0.6680 C   0  0  0  0  0  0  0  0  0  0  0  0
   17.9100   -2.1035    3.8897 C   0  0  0  0  0  0  0  0  0  0  0  0
   17.0986   -2.1283    2.7400 C   0  0  0  0  0  0  0  0  0  0  0  0
   15.7203   -1.9057    2.8215 C   0  0  0  0  0  0  0  0  0  0  0  0
   15.1235   -1.6441    4.0489 C   0  0  0  0  0  0  0  0  0  0  0  0
   15.8984   -1.6077    5.2041 C   0  0  0  0  0  0  0  0  0  0  0  0
   17.2774   -1.8570    5.1360 C   0  0  0  0  0  0  0  0  0  0  0  0
   17.5662   -1.8283   12.6111 N   0  0  0  0  0  0  0  0  0  0  0  0
   17.1028   -1.6927   14.1952 S   0  0  0  0  0  0  0  0  0  0  0  0
   13.1044   -0.7736   14.3045 C   0  0  0  0  0  0  0  0  0  0  0  0
   12.3516   -2.0452   13.9126 C   0  0  0  0  0  0  0  0  0  0  0  0
   10.8426    0.8626   14.1500 H   0  0  0  0  0  0  0  0  0  0  0  0
   10.5297    1.0284   15.8901 H   0  0  0  0  0  0  0  0  0  0  0  0
   10.3039   -0.5297   15.1268 H   0  0  0  0  0  0  0  0  0  0  0  0
   12.9225    0.9742   15.5897 H   0  0  0  0  0  0  0  0  0  0  0  0
   14.2238    0.0702   17.2894 H   0  0  0  0  0  0  0  0  0  0  0  0
   13.7400   -1.4428   18.0581 H   0  0  0  0  0  0  0  0  0  0  0  0
   15.5855   -1.7820   16.4619 H   0  0  0  0  0  0  0  0  0  0  0  0
   14.1615   -2.7379   16.0419 H   0  0  0  0  0  0  0  0  0  0  0  0
   16.7324   -2.8318   10.2037 H   0  0  0  0  0  0  0  0  0  0  0  0
   15.5982   -1.4871    9.9225 H   0  0  0  0  0  0  0  0  0  0  0  0
   18.3153   -0.8150   10.5902 H   0  0  0  0  0  0  0  0  0  0  0  0
   19.2017   -0.9583    8.5312 H   0  0  0  0  0  0  0  0  0  0  0  0
   18.6876   -2.5731    9.0316 H   0  0  0  0  0  0  0  0  0  0  0  0
   20.0725   -2.1509    7.0187 H   0  0  0  0  0  0  0  0  0  0  0  0
   21.1180   -2.4396    5.0735 H   0  0  0  0  0  0  0  0  0  0  0  0
   19.4971   -2.5099    1.7752 H   0  0  0  0  0  0  0  0  0  0  0  0
   21.5380   -1.9530    0.3745 H   0  0  0  0  0  0  0  0  0  0  0  0
   20.7178   -3.5153    0.4394 H   0  0  0  0  0  0  0  0  0  0  0  0
   23.9884   -5.1140    2.8615 H   0  0  0  0  0  0  0  0  0  0  0  0
   23.3551   -7.8220    2.7528 H   0  0  0  0  0  0  0  0  0  0  0  0
   23.0991   -4.3889   -1.7162 H   0  0  0  0  0  0  0  0  0  0  0  0
   22.7505   -2.6629   -1.5755 H   0  0  0  0  0  0  0  0  0  0  0  0
   25.2194   -4.0704   -0.7370 H   0  0  0  0  0  0  0  0  0  0  0  0
   24.8593   -3.2586    1.4557 H   0  0  0  0  0  0  0  0  0  0  0  0
   24.0680   -1.8140    0.8144 H   0  0  0  0  0  0  0  0  0  0  0  0
   17.5038   -2.3238    1.7535 H   0  0  0  0  0  0  0  0  0  0  0  0
   15.1081   -1.9299    1.9225 H   0  0  0  0  0  0  0  0  0  0  0  0
   14.0518   -1.4671    4.1064 H   0  0  0  0  0  0  0  0  0  0  0  0
   15.4137   -1.3803    6.1498 H   0  0  0  0  0  0  0  0  0  0  0  0
   13.1522   -0.1166   13.4255 H   0  0  0  0  0  0  0  0  0  0  0  0
   12.1706   -2.6997   14.7705 H   0  0  0  0  0  0  0  0  0  0  0  0
   11.3839   -1.7934   13.4824 H   0  0  0  0  0  0  0  0  0  0  0  0
   12.8984   -2.6159   13.1559 H   0  0  0  0  0  0  0  0  0  0  0  0
  1  2  1  0
  2  3  1  0
  3  4  1  0
  4  5  1  0
  5  6  1  0
  6  7  1  0
  7  8  2  0
  8  9  1  0
  9 10  1  0
 10 11  1  0
 11 12  1  0
 12 13  1  0
 13 14  2  3
 14 15  1  0
 15 16  1  0
 16 17  2  0
 17 18  1  0
 18 19  1  0
 19 20  2  0
 19 21  1  0
 21 22  1  0
 22 23  1  0
 23 24  1  0
 24 25  2  0
 25 26  1  0
 26 27  1  0
 22 28  1  0
 28 29  1  0
 29 30  1  0
 17 31  1  0
 31 32  2  0
 32 33  1  0
 33 34  2  0
 34 35  1  0
 35 36  2  0
  9 37  2  0
 37 38  1  0
  6 39  1  0
 39 40  1  0
 39  2  1  0
 38  7  1  0
 36 14  1  0
 30 22  1  0
 36 31  1  0
 27 23  2  0
  1 41  1  0
  1 42  1  0
  1 43  1  0
  2 44  1  0
  4 45  1  0
  4 46  1  0
  5 47  1  0
  5 48  1  0
 10 49  1  0
 10 50  1  0
 11 51  1  0
 12 52  1  0
 12 53  1  0
 15 54  1  0
 16 55  1  0
 18 56  1  0
 21 57  1  0
 21 58  1  0
 24 59  1  0
 25 60  1  0
 28 61  1  0
 28 62  1  0
 29 63  1  0
 30 64  1  0
 30 65  1  0
 32 66  1  0
 33 67  1  0
 34 68  1  0
 35 69  1  0
 39 70  1  0
 40 71  1  0
 40 72  1  0
 40 73  1  0
M  END
>  <Energy>  (696) 
82.205130435079951

>  <compound_id>  (696) 
1986

>  <target_id>  (696) 
1

>  <reference_id>  (696) 
113

>  <inspiration_ids>  (696) 
[31, 113]

>  <energy_score>  (696) 
-135.64711465118728

>  <distance_score>  (696) 
2.043711595527475

>  <path>  (696) 
/opt/xchem-fragalysis-2/maxwin/BulkDock/SCRATCH/505732/C1986-P113/C1986-P113.minimised.mol

>  <scratch_subdir>  (696) 
/opt/xchem-fragalysis-2/maxwin/BulkDock/SCRATCH/505732/C1986-P113

>  <fragmenstein_runtime>  (696) 
58.6107964515686

>  <fragmenstein_outcome>  (696) 
too moved

>  <fragmenstein_mode>  (696) 
expansion

>  <fragmenstein_error>  (696) 


$$$$
C1988-P31
     RDKit          3D

 59 61  0  0  0  0  0  0  0  0999 V2000
   12.4725   -4.4860   16.7580 C   0  0  0  0  0  0  0  0  0  0  0  0
   12.8688   -3.1782   17.1971 N   0  0  0  0  0  0  0  0  0  0  0  0
   13.3381   -2.4511   16.1030 C   0  0  0  0  0  0  0  0  0  0  0  0
   12.4030   -1.9764   15.1653 C   0  0  0  0  0  0  0  0  0  0  0  0
   12.8174   -1.2007   14.1012 C   0  0  0  0  0  0  0  0  0  0  0  0
   14.1750   -0.9293   13.9279 C   0  0  0  0  0  0  0  0  0  0  0  0
   14.5869   -0.0223   12.8037 C   0  0  0  0  0  0  0  0  0  0  0  0
   15.9722   -0.3026   12.2090 C   0  0  0  0  0  0  0  0  0  0  0  0
   16.1441    0.5441   11.0647 N   0  0  0  0  0  0  0  0  0  0  0  0
   16.9255    0.6344   10.1478 C   0  0  0  0  0  0  0  0  0  0  0  0
   18.1896   -0.2464    9.7836 N   0  0  0  0  0  0  0  0  0  0  0  0
   18.8125   -1.3405   10.4977 C   0  0  0  0  0  0  0  0  0  0  0  0
   18.1022   -2.6705   10.2958 C   0  0  0  0  0  0  0  0  0  0  0  0
   18.9044   -3.7981   10.9511 C   0  0  0  0  0  0  0  0  0  0  0  0
   19.2702   -3.4704   12.3996 C   0  0  0  0  0  0  0  0  0  0  0  0
   20.0275   -2.2174   12.4916 N   0  0  0  0  0  0  0  0  0  0  0  0
   19.2299   -1.1027   11.9479 C   0  0  0  0  0  0  0  0  0  0  0  0
   16.6795    1.7481    9.1686 C   0  0  0  0  0  0  0  0  0  0  0  0
   17.7395    2.5406    8.7153 C   0  0  0  0  0  0  0  0  0  0  0  0
   17.4970    3.5633    7.7960 C   0  0  0  0  0  0  0  0  0  0  0  0
   16.2003    3.7967    7.3352 C   0  0  0  0  0  0  0  0  0  0  0  0
   15.1404    3.0166    7.7985 C   0  0  0  0  0  0  0  0  0  0  0  0
   15.3777    1.9955    8.7192 C   0  0  0  0  0  0  0  0  0  0  0  0
   15.1091   -1.4556   14.8310 C   0  0  0  0  0  0  0  0  0  0  0  0
   14.6993   -2.2286   15.9116 C   0  0  0  0  0  0  0  0  0  0  0  0
   15.9556   -2.8715   16.9948 S   0  0  0  0  0  0  0  0  0  0  0  0
   15.5489   -2.4329   18.6578 C   0  0  0  0  0  0  0  0  0  0  0  0
   15.9132   -4.3224   16.9072 O   0  0  0  0  0  0  0  0  0  0  0  0
   17.1999   -2.1816   16.6911 O   0  0  0  0  0  0  0  0  0  0  0  0
   13.2928   -5.0088   16.2797 H   0  0  0  0  0  0  0  0  0  0  0  0
   11.5827   -4.4438   16.1291 H   0  0  0  0  0  0  0  0  0  0  0  0
   12.2108   -5.0015   17.6525 H   0  0  0  0  0  0  0  0  0  0  0  0
   12.0244   -2.7315   17.5289 H   0  0  0  0  0  0  0  0  0  0  0  0
   11.3415   -2.1807   15.2737 H   0  0  0  0  0  0  0  0  0  0  0  0
   12.0748   -0.8011   13.4166 H   0  0  0  0  0  0  0  0  0  0  0  0
   13.8507   -0.0994   11.9927 H   0  0  0  0  0  0  0  0  0  0  0  0
   14.5444    1.0148   13.1615 H   0  0  0  0  0  0  0  0  0  0  0  0
   16.0636   -1.3594   11.9583 H   0  0  0  0  0  0  0  0  0  0  0  0
   16.7102   -0.0268   12.9643 H   0  0  0  0  0  0  0  0  0  0  0  0
   18.6683    0.1622    8.9884 H   0  0  0  0  0  0  0  0  0  0  0  0
   19.7683   -1.4606    9.9637 H   0  0  0  0  0  0  0  0  0  0  0  0
   18.0057   -2.8720    9.2236 H   0  0  0  0  0  0  0  0  0  0  0  0
   17.0899   -2.6531   10.7052 H   0  0  0  0  0  0  0  0  0  0  0  0
   19.8231   -3.9687   10.3747 H   0  0  0  0  0  0  0  0  0  0  0  0
   18.3369   -4.7321   10.9092 H   0  0  0  0  0  0  0  0  0  0  0  0
   18.3672   -3.4077   13.0188 H   0  0  0  0  0  0  0  0  0  0  0  0
   19.8798   -4.2811   12.8132 H   0  0  0  0  0  0  0  0  0  0  0  0
   20.8941   -2.3082   11.9627 H   0  0  0  0  0  0  0  0  0  0  0  0
   18.3817   -0.9660   12.6084 H   0  0  0  0  0  0  0  0  0  0  0  0
   19.8236   -0.1837   12.0169 H   0  0  0  0  0  0  0  0  0  0  0  0
   18.7463    2.3917    9.0940 H   0  0  0  0  0  0  0  0  0  0  0  0
   18.3168    4.1859    7.4463 H   0  0  0  0  0  0  0  0  0  0  0  0
   16.0138    4.5952    6.6210 H   0  0  0  0  0  0  0  0  0  0  0  0
   14.1297    3.2048    7.4457 H   0  0  0  0  0  0  0  0  0  0  0  0
   14.5528    1.3905    9.0847 H   0  0  0  0  0  0  0  0  0  0  0  0
   16.1694   -1.2488   14.7053 H   0  0  0  0  0  0  0  0  0  0  0  0
   16.3307   -2.8480   19.3006 H   0  0  0  0  0  0  0  0  0  0  0  0
   14.5974   -2.8661   18.9569 H   0  0  0  0  0  0  0  0  0  0  0  0
   15.5492   -1.3526   18.7746 H   0  0  0  0  0  0  0  0  0  0  0  0
  1  2  1  0
  2  3  1  0
  3  4  2  0
  4  5  1  0
  5  6  2  0
  6  7  1  0
  7  8  1  0
  8  9  1  0
  9 10  2  3
 10 11  1  0
 11 12  1  0
 12 13  1  0
 13 14  1  0
 14 15  1  0
 15 16  1  0
 16 17  1  0
 10 18  1  0
 18 19  2  0
 19 20  1  0
 20 21  2  0
 21 22  1  0
 22 23  2  0
  6 24  1  0
 24 25  2  0
 25 26  1  0
 26 27  1  0
 26 28  2  0
 26 29  2  0
 25  3  1  0
 17 12  1  0
 23 18  1  0
  1 30  1  0
  1 31  1  0
  1 32  1  0
  2 33  1  0
  4 34  1  0
  5 35  1  0
  7 36  1  0
  7 37  1  0
  8 38  1  0
  8 39  1  0
 11 40  1  0
 12 41  1  0
 13 42  1  0
 13 43  1  0
 14 44  1  0
 14 45  1  0
 15 46  1  0
 15 47  1  0
 16 48  1  0
 17 49  1  0
 17 50  1  0
 19 51  1  0
 20 52  1  0
 21 53  1  0
 22 54  1  0
 23 55  1  0
 24 56  1  0
 27 57  1  0
 27 58  1  0
 27 59  1  0
M  END
>  <Energy>  (697) 
134.65897603698889

>  <compound_id>  (697) 
1988

>  <target_id>  (697) 
1

>  <reference_id>  (697) 
31

>  <inspiration_ids>  (697) 
[31, 118]

>  <energy_score>  (697) 
-30.37955767345079

>  <distance_score>  (697) 
2.0441366546861723

>  <path>  (697) 
/opt/xchem-fragalysis-2/maxwin/BulkDock/SCRATCH/505732/C1988-P31/C1988-P31.minimised.mol

>  <scratch_subdir>  (697) 
/opt/xchem-fragalysis-2/maxwin/BulkDock/SCRATCH/505732/C1988-P31

>  <fragmenstein_runtime>  (697) 
7.385799884796143

>  <fragmenstein_outcome>  (697) 
too moved

>  <fragmenstein_mode>  (697) 
expansion

>  <fragmenstein_error>  (697) 


$$$$
C1988-P118
     RDKit          3D

 59 61  0  0  0  0  0  0  0  0999 V2000
   12.9920   -4.2022   17.5288 C   0  0  0  0  0  0  0  0  0  0  0  0
   13.6552   -2.9189   17.6411 N   0  0  0  0  0  0  0  0  0  0  0  0
   13.8109   -2.1685   16.4635 C   0  0  0  0  0  0  0  0  0  0  0  0
   12.7807   -2.0939   15.5079 C   0  0  0  0  0  0  0  0  0  0  0  0
   12.8976   -1.3109   14.3537 C   0  0  0  0  0  0  0  0  0  0  0  0
   14.0418   -0.5438   14.1388 C   0  0  0  0  0  0  0  0  0  0  0  0
   14.2014    0.2964   12.8932 C   0  0  0  0  0  0  0  0  0  0  0  0
   15.1689   -0.2857   11.8488 C   0  0  0  0  0  0  0  0  0  0  0  0
   16.4953   -0.3809   12.4219 N   0  0  0  0  0  0  0  0  0  0  0  0
   17.5798   -0.5457   11.8456 C   0  0  0  0  0  0  0  0  0  0  0  0
   18.9002   -0.7484   12.3702 N   0  0  0  0  0  0  0  0  0  0  0  0
   19.3661   -0.9186   13.7177 C   0  0  0  0  0  0  0  0  0  0  0  0
   20.8490   -0.5676   13.8239 C   0  0  0  0  0  0  0  0  0  0  0  0
   21.3645   -0.8820   15.2267 C   0  0  0  0  0  0  0  0  0  0  0  0
   21.0636   -2.3282   15.6207 C   0  0  0  0  0  0  0  0  0  0  0  0
   19.6415   -2.6540   15.5217 N   0  0  0  0  0  0  0  0  0  0  0  0
   19.1219   -2.3740   14.1747 C   0  0  0  0  0  0  0  0  0  0  0  0
   17.6046   -0.5930   10.3392 C   0  0  0  0  0  0  0  0  0  0  0  0
   17.5217    0.5930    9.6060 C   0  0  0  0  0  0  0  0  0  0  0  0
   17.6618    0.5521    8.2186 C   0  0  0  0  0  0  0  0  0  0  0  0
   17.9110   -0.6634    7.5759 C   0  0  0  0  0  0  0  0  0  0  0  0
   18.0103   -1.8430    8.3167 C   0  0  0  0  0  0  0  0  0  0  0  0
   17.8468   -1.8129    9.7013 C   0  0  0  0  0  0  0  0  0  0  0  0
   15.0519   -0.5575   15.1078 C   0  0  0  0  0  0  0  0  0  0  0  0
   14.9301   -1.3429   16.2598 C   0  0  0  0  0  0  0  0  0  0  0  0
   16.2632   -1.2743   17.4409 S   0  0  0  0  0  0  0  0  0  0  0  0
   15.7158   -0.0272   18.5777 C   0  0  0  0  0  0  0  0  0  0  0  0
   16.3008   -2.5410   18.1528 O   0  0  0  0  0  0  0  0  0  0  0  0
   17.4589   -0.7802   16.7794 O   0  0  0  0  0  0  0  0  0  0  0  0
   12.9889   -4.6789   18.5134 H   0  0  0  0  0  0  0  0  0  0  0  0
   13.5417   -4.8505   16.8472 H   0  0  0  0  0  0  0  0  0  0  0  0
   11.9589   -4.1227   17.1880 H   0  0  0  0  0  0  0  0  0  0  0  0
   14.5682   -3.0750   18.0946 H   0  0  0  0  0  0  0  0  0  0  0  0
   11.8589   -2.6543   15.6344 H   0  0  0  0  0  0  0  0  0  0  0  0
   12.0840   -1.3121   13.6302 H   0  0  0  0  0  0  0  0  0  0  0  0
   13.2204    0.4373   12.4221 H   0  0  0  0  0  0  0  0  0  0  0  0
   14.5373    1.2985   13.1911 H   0  0  0  0  0  0  0  0  0  0  0  0
   15.1523    0.3787   10.9801 H   0  0  0  0  0  0  0  0  0  0  0  0
   14.8256   -1.2796   11.5389 H   0  0  0  0  0  0  0  0  0  0  0  0
   19.5350   -0.9302   11.5985 H   0  0  0  0  0  0  0  0  0  0  0  0
   18.8019   -0.2422   14.3717 H   0  0  0  0  0  0  0  0  0  0  0  0
   21.0069    0.4933   13.5960 H   0  0  0  0  0  0  0  0  0  0  0  0
   21.4293   -1.1369   13.0860 H   0  0  0  0  0  0  0  0  0  0  0  0
   20.8993   -0.1993   15.9490 H   0  0  0  0  0  0  0  0  0  0  0  0
   22.4451   -0.7053   15.2697 H   0  0  0  0  0  0  0  0  0  0  0  0
   21.6403   -3.0160   14.9903 H   0  0  0  0  0  0  0  0  0  0  0  0
   21.3937   -2.4998   16.6511 H   0  0  0  0  0  0  0  0  0  0  0  0
   19.1115   -2.0666   16.1795 H   0  0  0  0  0  0  0  0  0  0  0  0
   19.5728   -3.0772   13.4621 H   0  0  0  0  0  0  0  0  0  0  0  0
   18.0460   -2.5878   14.1674 H   0  0  0  0  0  0  0  0  0  0  0  0
   17.3636    1.5393   10.1164 H   0  0  0  0  0  0  0  0  0  0  0  0
   17.5988    1.4707    7.6401 H   0  0  0  0  0  0  0  0  0  0  0  0
   18.0457   -0.6854    6.4968 H   0  0  0  0  0  0  0  0  0  0  0  0
   18.2266   -2.7881    7.8223 H   0  0  0  0  0  0  0  0  0  0  0  0
   17.9242   -2.7298   10.2807 H   0  0  0  0  0  0  0  0  0  0  0  0
   15.9472    0.0425   14.9462 H   0  0  0  0  0  0  0  0  0  0  0  0
   15.5874    0.9140   18.0399 H   0  0  0  0  0  0  0  0  0  0  0  0
   16.4812    0.0877   19.3483 H   0  0  0  0  0  0  0  0  0  0  0  0
   14.7767   -0.3446   19.0343 H   0  0  0  0  0  0  0  0  0  0  0  0
  1  2  1  0
  2  3  1  0
  3  4  2  0
  4  5  1  0
  5  6  2  0
  6  7  1  0
  7  8  1  0
  8  9  1  0
  9 10  2  3
 10 11  1  0
 11 12  1  0
 12 13  1  0
 13 14  1  0
 14 15  1  0
 15 16  1  0
 16 17  1  0
 10 18  1  0
 18 19  2  0
 19 20  1  0
 20 21  2  0
 21 22  1  0
 22 23  2  0
  6 24  1  0
 24 25  2  0
 25 26  1  0
 26 27  1  0
 26 28  2  0
 26 29  2  0
 25  3  1  0
 17 12  1  0
 23 18  1  0
  1 30  1  0
  1 31  1  0
  1 32  1  0
  2 33  1  0
  4 34  1  0
  5 35  1  0
  7 36  1  0
  7 37  1  0
  8 38  1  0
  8 39  1  0
 11 40  1  0
 12 41  1  0
 13 42  1  0
 13 43  1  0
 14 44  1  0
 14 45  1  0
 15 46  1  0
 15 47  1  0
 16 48  1  0
 17 49  1  0
 17 50  1  0
 19 51  1  0
 20 52  1  0
 21 53  1  0
 22 54  1  0
 23 55  1  0
 24 56  1  0
 27 57  1  0
 27 58  1  0
 27 59  1  0
M  END
>  <Energy>  (698) 
102.35778770835226

>  <compound_id>  (698) 
1988

>  <target_id>  (698) 
1

>  <reference_id>  (698) 
118

>  <inspiration_ids>  (698) 
[31, 118]

>  <energy_score>  (698) 
-52.685936983375484

>  <distance_score>  (698) 
2.0203533415379202

>  <path>  (698) 
/opt/xchem-fragalysis-2/maxwin/BulkDock/SCRATCH/505732/C1988-P118/C1988-P118.minimised.mol

>  <scratch_subdir>  (698) 
/opt/xchem-fragalysis-2/maxwin/BulkDock/SCRATCH/505732/C1988-P118

>  <fragmenstein_runtime>  (698) 
9.600898027420044

>  <fragmenstein_outcome>  (698) 
too moved

>  <fragmenstein_mode>  (698) 
expansion

>  <fragmenstein_error>  (698) 


$$$$
C1990-P31
     RDKit          3D

 38 40  0  0  0  0  0  0  0  0999 V2000
    9.1552   -0.8108   15.2078 C   0  0  0  0  0  0  0  0  0  0  0  0
   10.4582   -0.3422   14.6452 C   0  0  0  0  0  0  0  0  0  0  0  0
   10.3533    0.8408   13.9772 N   0  0  0  0  0  0  0  0  0  0  0  0
   11.4354    1.3975   13.4361 N   0  0  0  0  0  0  0  0  0  0  0  0
   12.6290    0.8068   13.6531 C   0  0  0  0  0  0  0  0  0  0  0  0
   12.8257   -0.3733   14.3789 C   0  0  0  0  0  0  0  0  0  0  0  0
   14.1091   -0.8914   14.6834 C   0  0  0  0  0  0  0  0  0  0  0  0
   15.3100   -0.1162   14.2655 C   0  0  0  0  0  0  0  0  0  0  0  0
   15.4084    0.9895   14.6097 O   0  0  0  0  0  0  0  0  0  0  0  0
   16.1905   -0.9456   13.3283 N   0  0  0  0  0  0  0  0  0  0  0  0
   17.3367   -0.5636   12.5321 C   0  0  0  0  0  0  0  0  0  0  0  0
   18.4470   -1.6163   12.5783 C   0  0  0  0  0  0  0  0  0  0  0  0
   18.8403   -2.0702   11.1769 C   0  0  0  0  0  0  0  0  0  0  0  0
   17.6046   -2.4707   10.3821 C   0  0  0  0  0  0  0  0  0  0  0  0
   16.5310   -1.4717   10.3457 N   0  0  0  0  0  0  0  0  0  0  0  0
   16.8641   -0.2553   11.0948 C   0  0  0  0  0  0  0  0  0  0  0  0
   14.2603   -2.0532   15.4456 C   0  0  0  0  0  0  0  0  0  0  0  0
   13.1278   -2.7471   15.8605 C   0  0  0  0  0  0  0  0  0  0  0  0
   11.8581   -2.2705   15.5227 C   0  0  0  0  0  0  0  0  0  0  0  0
   11.6810   -1.0309   14.8450 C   0  0  0  0  0  0  0  0  0  0  0  0
    9.0559   -1.8930   15.1534 H   0  0  0  0  0  0  0  0  0  0  0  0
    8.3259   -0.4018   14.6307 H   0  0  0  0  0  0  0  0  0  0  0  0
    9.0435   -0.4592   16.2329 H   0  0  0  0  0  0  0  0  0  0  0  0
   13.4543    1.3654   13.2199 H   0  0  0  0  0  0  0  0  0  0  0  0
   15.8583   -1.9050   13.3126 H   0  0  0  0  0  0  0  0  0  0  0  0
   17.7090    0.3710   12.9688 H   0  0  0  0  0  0  0  0  0  0  0  0
   18.1386   -2.4878   13.1699 H   0  0  0  0  0  0  0  0  0  0  0  0
   19.3287   -1.2024   13.0822 H   0  0  0  0  0  0  0  0  0  0  0  0
   19.3833   -1.2690   10.6603 H   0  0  0  0  0  0  0  0  0  0  0  0
   19.5299   -2.9195   11.2448 H   0  0  0  0  0  0  0  0  0  0  0  0
   17.9086   -2.6941    9.3546 H   0  0  0  0  0  0  0  0  0  0  0  0
   17.2019   -3.3968   10.8065 H   0  0  0  0  0  0  0  0  0  0  0  0
   15.6867   -1.8807   10.7478 H   0  0  0  0  0  0  0  0  0  0  0  0
   17.6395    0.3016   10.5543 H   0  0  0  0  0  0  0  0  0  0  0  0
   15.9819    0.3961   11.1144 H   0  0  0  0  0  0  0  0  0  0  0  0
   15.2503   -2.4047   15.7256 H   0  0  0  0  0  0  0  0  0  0  0  0
   13.2280   -3.6675   16.4340 H   0  0  0  0  0  0  0  0  0  0  0  0
   11.0015   -2.8610   15.8243 H   0  0  0  0  0  0  0  0  0  0  0  0
  1  2  1  0
  2  3  2  0
  3  4  1  0
  4  5  2  0
  5  6  1  0
  6  7  2  0
  7  8  1  0
  8  9  2  0
  8 10  1  0
 10 11  1  0
 11 12  1  0
 12 13  1  0
 13 14  1  0
 14 15  1  0
 15 16  1  0
  7 17  1  0
 17 18  2  0
 18 19  1  0
 19 20  2  0
 20  2  1  0
 20  6  1  0
 16 11  1  0
  1 21  1  0
  1 22  1  0
  1 23  1  0
  5 24  1  0
 10 25  1  0
 11 26  1  0
 12 27  1  0
 12 28  1  0
 13 29  1  0
 13 30  1  0
 14 31  1  0
 14 32  1  0
 15 33  1  0
 16 34  1  0
 16 35  1  0
 17 36  1  0
 18 37  1  0
 19 38  1  0
M  END
>  <Energy>  (699) 
75.477485119638743

>  <compound_id>  (699) 
1990

>  <target_id>  (699) 
1

>  <reference_id>  (699) 
31

>  <inspiration_ids>  (699) 
[31, 122]

>  <energy_score>  (699) 
-15.32663217235411

>  <distance_score>  (699) 
1.4963074164759746

>  <path>  (699) 
/opt/xchem-fragalysis-2/maxwin/BulkDock/SCRATCH/505732/C1990-P31/C1990-P31.minimised.mol

>  <scratch_subdir>  (699) 
/opt/xchem-fragalysis-2/maxwin/BulkDock/SCRATCH/505732/C1990-P31

>  <fragmenstein_runtime>  (699) 
2.1155953407287598

>  <fragmenstein_outcome>  (699) 
too moved

>  <fragmenstein_mode>  (699) 
expansion

>  <fragmenstein_error>  (699) 


$$$$
C1990-P122
     RDKit          3D

 38 40  0  0  0  0  0  0  0  0999 V2000
   10.6694   -2.8834   14.9801 C   0  0  0  0  0  0  0  0  0  0  0  0
   11.6122   -1.7499   15.1800 C   0  0  0  0  0  0  0  0  0  0  0  0
   11.3050   -0.6108   14.5082 N   0  0  0  0  0  0  0  0  0  0  0  0
   12.2505    0.3092   14.2673 N   0  0  0  0  0  0  0  0  0  0  0  0
   13.5071    0.0373   14.6530 C   0  0  0  0  0  0  0  0  0  0  0  0
   13.8626   -1.0891   15.4010 C   0  0  0  0  0  0  0  0  0  0  0  0
   15.1879   -1.4103   15.7527 C   0  0  0  0  0  0  0  0  0  0  0  0
   16.3099   -0.8943   14.9311 C   0  0  0  0  0  0  0  0  0  0  0  0
   17.1416   -0.2158   15.3773 O   0  0  0  0  0  0  0  0  0  0  0  0
   16.1488   -1.4747   13.5147 N   0  0  0  0  0  0  0  0  0  0  0  0
   17.0276   -1.4192   12.3759 C   0  0  0  0  0  0  0  0  0  0  0  0
   17.6644   -0.0498   12.1379 C   0  0  0  0  0  0  0  0  0  0  0  0
   18.1794    0.0843   10.6979 C   0  0  0  0  0  0  0  0  0  0  0  0
   18.4007   -1.2705   10.0341 C   0  0  0  0  0  0  0  0  0  0  0  0
   17.1713   -2.0571    9.9502 N   0  0  0  0  0  0  0  0  0  0  0  0
   16.2862   -1.8687   11.1017 C   0  0  0  0  0  0  0  0  0  0  0  0
   15.4854   -2.4683   16.6129 C   0  0  0  0  0  0  0  0  0  0  0  0
   14.4613   -3.2766   17.0810 C   0  0  0  0  0  0  0  0  0  0  0  0
   13.1660   -3.0728   16.6198 C   0  0  0  0  0  0  0  0  0  0  0  0
   12.8558   -1.9828   15.7650 C   0  0  0  0  0  0  0  0  0  0  0  0
   10.7397   -3.6255   15.7684 H   0  0  0  0  0  0  0  0  0  0  0  0
   10.9468   -3.3884   14.0511 H   0  0  0  0  0  0  0  0  0  0  0  0
    9.6401   -2.5241   14.9240 H   0  0  0  0  0  0  0  0  0  0  0  0
   14.2367    0.7863   14.3573 H   0  0  0  0  0  0  0  0  0  0  0  0
   15.2596   -1.9593   13.4461 H   0  0  0  0  0  0  0  0  0  0  0  0
   17.8218   -2.1430   12.6009 H   0  0  0  0  0  0  0  0  0  0  0  0
   18.4928    0.0908   12.8431 H   0  0  0  0  0  0  0  0  0  0  0  0
   16.9510    0.7588   12.3404 H   0  0  0  0  0  0  0  0  0  0  0  0
   17.4556    0.6632   10.1093 H   0  0  0  0  0  0  0  0  0  0  0  0
   19.1101    0.6633   10.6947 H   0  0  0  0  0  0  0  0  0  0  0  0
   18.7907   -1.1250    9.0210 H   0  0  0  0  0  0  0  0  0  0  0  0
   19.1643   -1.8312   10.5875 H   0  0  0  0  0  0  0  0  0  0  0  0
   17.4273   -3.0449    9.8811 H   0  0  0  0  0  0  0  0  0  0  0  0
   15.5178   -1.1293   10.8404 H   0  0  0  0  0  0  0  0  0  0  0  0
   15.7436   -2.8036   11.2817 H   0  0  0  0  0  0  0  0  0  0  0  0
   16.5196   -2.6946   16.8658 H   0  0  0  0  0  0  0  0  0  0  0  0
   14.6826   -4.1036   17.7507 H   0  0  0  0  0  0  0  0  0  0  0  0
   12.4031   -3.7691   16.9602 H   0  0  0  0  0  0  0  0  0  0  0  0
  1  2  1  0
  2  3  2  0
  3  4  1  0
  4  5  2  0
  5  6  1  0
  6  7  2  0
  7  8  1  0
  8  9  2  0
  8 10  1  0
 10 11  1  0
 11 12  1  0
 12 13  1  0
 13 14  1  0
 14 15  1  0
 15 16  1  0
  7 17  1  0
 17 18  2  0
 18 19  1  0
 19 20  2  0
 20  2  1  0
 20  6  1  0
 16 11  1  0
  1 21  1  0
  1 22  1  0
  1 23  1  0
  5 24  1  0
 10 25  1  0
 11 26  1  0
 12 27  1  0
 12 28  1  0
 13 29  1  0
 13 30  1  0
 14 31  1  0
 14 32  1  0
 15 33  1  0
 16 34  1  0
 16 35  1  0
 17 36  1  0
 18 37  1  0
 19 38  1  0
M  END
>  <Energy>  (700) 
86.638029590633536

>  <compound_id>  (700) 
1990

>  <target_id>  (700) 
1

>  <reference_id>  (700) 
122

>  <inspiration_ids>  (700) 
[31, 122]

>  <energy_score>  (700) 
-4.166087701358435

>  <distance_score>  (700) 
1.760672121431917

>  <path>  (700) 
/opt/xchem-fragalysis-2/maxwin/BulkDock/SCRATCH/505732/C1990-P122/C1990-P122.minimised.mol

>  <scratch_subdir>  (700) 
/opt/xchem-fragalysis-2/maxwin/BulkDock/SCRATCH/505732/C1990-P122

>  <fragmenstein_runtime>  (700) 
2.4575600624084473

>  <fragmenstein_outcome>  (700) 
too moved

>  <fragmenstein_mode>  (700) 
expansion

>  <fragmenstein_error>  (700) 


$$$$
C1991-P31
     RDKit          3D

 58 58  0  0  0  0  0  0  0  0999 V2000
   18.1752   -5.8497   14.9545 C   0  0  0  0  0  0  0  0  0  0  0  0
   18.2735   -5.0378   16.2281 C   0  0  0  0  0  0  0  0  0  0  0  0
   17.5672   -3.6843   16.1421 C   0  0  0  0  0  0  0  0  0  0  0  0
   17.8005   -2.9537   17.4610 C   0  0  0  0  0  0  0  0  0  0  0  0
   17.2554   -1.5424   17.5875 C   0  0  0  0  0  0  0  0  0  0  0  0
   17.8534   -0.5320   16.5959 C   0  0  0  0  0  0  0  0  0  0  0  0
   17.1916   -0.5643   15.2179 C   0  0  0  0  0  0  0  0  0  0  0  0
   17.9021   -0.6607   14.2382 N   0  0  0  0  0  0  0  0  0  0  0  0
   17.7650   -0.4126   12.6791 S   0  0  0  0  0  0  0  0  0  0  0  0
   18.9076    0.3919   12.2778 O   0  0  0  0  0  0  0  0  0  0  0  0
   16.4516    0.0687   12.3100 O   0  0  0  0  0  0  0  0  0  0  0  0
   18.0456   -2.0909   12.0204 C   0  0  0  0  0  0  0  0  0  0  0  0
   17.5148   -2.1958   10.5839 C   0  0  0  0  0  0  0  0  0  0  0  0
   18.2376   -1.3314    9.5620 C   0  0  0  0  0  0  0  0  0  0  0  0
   19.5214   -2.4991   12.1934 C   0  0  0  0  0  0  0  0  0  0  0  0
   19.8493   -3.8777   11.6377 C   0  0  0  0  0  0  0  0  0  0  0  0
   15.6208   -0.5647   15.3496 N   0  0  0  0  0  0  0  0  0  0  0  0
   14.5930   -0.7748   14.3563 C   0  0  0  0  0  0  0  0  0  0  0  0
   13.3302   -1.0432   15.2558 C   0  0  0  0  0  0  0  0  0  0  0  0
   12.4814   -2.2747   15.0208 C   0  0  0  0  0  0  0  0  0  0  0  0
   12.2776   -2.4087   13.5508 C   0  0  0  0  0  0  0  0  0  0  0  0
   13.5200   -2.3637   12.7864 N   0  0  0  0  0  0  0  0  0  0  0  0
   14.7380   -2.0116   13.5091 C   0  0  0  0  0  0  0  0  0  0  0  0
   18.7799   -6.7586   15.0355 H   0  0  0  0  0  0  0  0  0  0  0  0
   18.5340   -5.2784   14.0962 H   0  0  0  0  0  0  0  0  0  0  0  0
   17.1450   -6.1543   14.7724 H   0  0  0  0  0  0  0  0  0  0  0  0
   19.3361   -4.8825   16.4525 H   0  0  0  0  0  0  0  0  0  0  0  0
   17.8573   -5.6247   17.0560 H   0  0  0  0  0  0  0  0  0  0  0  0
   16.4953   -3.8200   15.9635 H   0  0  0  0  0  0  0  0  0  0  0  0
   17.9865   -3.1244   15.3035 H   0  0  0  0  0  0  0  0  0  0  0  0
   18.8799   -2.9145   17.6605 H   0  0  0  0  0  0  0  0  0  0  0  0
   17.3697   -3.5532   18.2742 H   0  0  0  0  0  0  0  0  0  0  0  0
   16.1673   -1.6054   17.5573 H   0  0  0  0  0  0  0  0  0  0  0  0
   17.5011   -1.1883   18.5975 H   0  0  0  0  0  0  0  0  0  0  0  0
   17.6923    0.4808   16.9859 H   0  0  0  0  0  0  0  0  0  0  0  0
   18.9356   -0.6747   16.4985 H   0  0  0  0  0  0  0  0  0  0  0  0
   17.4414   -2.7584   12.6445 H   0  0  0  0  0  0  0  0  0  0  0  0
   17.5799   -3.2388   10.2641 H   0  0  0  0  0  0  0  0  0  0  0  0
   16.4494   -1.9391   10.5601 H   0  0  0  0  0  0  0  0  0  0  0  0
   19.3078   -1.5530    9.5270 H   0  0  0  0  0  0  0  0  0  0  0  0
   18.1102   -0.2657    9.7700 H   0  0  0  0  0  0  0  0  0  0  0  0
   17.8326   -1.5160    8.5622 H   0  0  0  0  0  0  0  0  0  0  0  0
   20.1887   -1.7675   11.7242 H   0  0  0  0  0  0  0  0  0  0  0  0
   19.7674   -2.4902   13.2625 H   0  0  0  0  0  0  0  0  0  0  0  0
   19.1431   -4.6310   11.9959 H   0  0  0  0  0  0  0  0  0  0  0  0
   19.8284   -3.8818   10.5438 H   0  0  0  0  0  0  0  0  0  0  0  0
   20.8554   -4.1779   11.9475 H   0  0  0  0  0  0  0  0  0  0  0  0
   15.3612   -0.3801   16.3205 H   0  0  0  0  0  0  0  0  0  0  0  0
   14.4239    0.1307   13.7656 H   0  0  0  0  0  0  0  0  0  0  0  0
   12.7027   -0.1457   15.2052 H   0  0  0  0  0  0  0  0  0  0  0  0
   13.6424   -1.2244   16.2811 H   0  0  0  0  0  0  0  0  0  0  0  0
   12.9653   -3.1563   15.4528 H   0  0  0  0  0  0  0  0  0  0  0  0
   11.5186   -2.1729   15.5350 H   0  0  0  0  0  0  0  0  0  0  0  0
   11.6736   -1.5599   13.2302 H   0  0  0  0  0  0  0  0  0  0  0  0
   11.7131   -3.3197   13.3320 H   0  0  0  0  0  0  0  0  0  0  0  0
   13.6822   -3.2473   12.3029 H   0  0  0  0  0  0  0  0  0  0  0  0
   15.1191   -2.8219   14.1347 H   0  0  0  0  0  0  0  0  0  0  0  0
   15.4868   -1.8984   12.7416 H   0  0  0  0  0  0  0  0  0  0  0  0
  1  2  1  0
  2  3  1  0
  3  4  1  0
  4  5  1  0
  5  6  1  0
  6  7  1  0
  7  8  2  3
  8  9  1  0
  9 10  2  0
  9 11  2  0
  9 12  1  0
 12 13  1  0
 13 14  1  0
 12 15  1  0
 15 16  1  0
  7 17  1  0
 17 18  1  0
 18 19  1  0
 19 20  1  0
 20 21  1  0
 21 22  1  0
 22 23  1  0
 23 18  1  0
  1 24  1  0
  1 25  1  0
  1 26  1  0
  2 27  1  0
  2 28  1  0
  3 29  1  0
  3 30  1  0
  4 31  1  0
  4 32  1  0
  5 33  1  0
  5 34  1  0
  6 35  1  0
  6 36  1  0
 12 37  1  0
 13 38  1  0
 13 39  1  0
 14 40  1  0
 14 41  1  0
 14 42  1  0
 15 43  1  0
 15 44  1  0
 16 45  1  0
 16 46  1  0
 16 47  1  0
 17 48  1  0
 18 49  1  0
 19 50  1  0
 19 51  1  0
 20 52  1  0
 20 53  1  0
 21 54  1  0
 21 55  1  0
 22 56  1  0
 23 57  1  0
 23 58  1  0
M  END
>  <Energy>  (701) 
41.772401556213715

>  <compound_id>  (701) 
1991

>  <target_id>  (701) 
1

>  <reference_id>  (701) 
31

>  <inspiration_ids>  (701) 
[31, 124]

>  <energy_score>  (701) 
-10.729705734006075

>  <distance_score>  (701) 
2.1126302879977144

>  <path>  (701) 
/opt/xchem-fragalysis-2/maxwin/BulkDock/SCRATCH/505732/C1991-P31/C1991-P31.minimised.mol

>  <scratch_subdir>  (701) 
/opt/xchem-fragalysis-2/maxwin/BulkDock/SCRATCH/505732/C1991-P31

>  <fragmenstein_runtime>  (701) 
14.403289794921875

>  <fragmenstein_outcome>  (701) 
too moved

>  <fragmenstein_mode>  (701) 
expansion

>  <fragmenstein_error>  (701) 


$$$$
C1991-P124
     RDKit          3D

 58 58  0  0  0  0  0  0  0  0999 V2000
   17.3214   -5.3093   15.5604 C   0  0  0  0  0  0  0  0  0  0  0  0
   18.1741   -4.6710   16.6416 C   0  0  0  0  0  0  0  0  0  0  0  0
   18.2175   -3.1514   16.5171 C   0  0  0  0  0  0  0  0  0  0  0  0
   17.0597   -2.4558   17.2214 C   0  0  0  0  0  0  0  0  0  0  0  0
   17.1463   -0.9181   17.2212 C   0  0  0  0  0  0  0  0  0  0  0  0
   17.1898   -0.1698   15.8610 C   0  0  0  0  0  0  0  0  0  0  0  0
   16.4184   -0.9378   14.7654 C   0  0  0  0  0  0  0  0  0  0  0  0
   16.9370   -1.3336   13.7475 N   0  0  0  0  0  0  0  0  0  0  0  0
   18.4147   -1.0409   13.1880 S   0  0  0  0  0  0  0  0  0  0  0  0
   19.4146   -1.3689   14.1842 O   0  0  0  0  0  0  0  0  0  0  0  0
   18.4292    0.2718   12.5746 O   0  0  0  0  0  0  0  0  0  0  0  0
   18.5187   -2.3069   11.8919 C   0  0  0  0  0  0  0  0  0  0  0  0
   17.3922   -2.1608   10.8510 C   0  0  0  0  0  0  0  0  0  0  0  0
   17.5942   -1.0661    9.8102 C   0  0  0  0  0  0  0  0  0  0  0  0
   19.9080   -2.3444   11.2277 C   0  0  0  0  0  0  0  0  0  0  0  0
   20.9944   -2.9864   12.0810 C   0  0  0  0  0  0  0  0  0  0  0  0
   14.9641   -1.1469   15.3151 N   0  0  0  0  0  0  0  0  0  0  0  0
   13.8868   -1.9361   14.8143 C   0  0  0  0  0  0  0  0  0  0  0  0
   13.5283   -2.9135   15.9470 C   0  0  0  0  0  0  0  0  0  0  0  0
   12.0997   -3.4040   15.9504 C   0  0  0  0  0  0  0  0  0  0  0  0
   11.3130   -3.0074   14.7237 C   0  0  0  0  0  0  0  0  0  0  0  0
   11.3891   -1.5676   14.5746 N   0  0  0  0  0  0  0  0  0  0  0  0
   12.7374   -1.1009   14.2449 C   0  0  0  0  0  0  0  0  0  0  0  0
   17.7465   -5.1100   14.5718 H   0  0  0  0  0  0  0  0  0  0  0  0
   16.3015   -4.9197   15.5794 H   0  0  0  0  0  0  0  0  0  0  0  0
   17.2829   -6.3944   15.6953 H   0  0  0  0  0  0  0  0  0  0  0  0
   17.8146   -4.9715   17.6321 H   0  0  0  0  0  0  0  0  0  0  0  0
   19.1936   -5.0626   16.5415 H   0  0  0  0  0  0  0  0  0  0  0  0
   18.2308   -2.9037   15.4610 H   0  0  0  0  0  0  0  0  0  0  0  0
   19.1571   -2.7913   16.9530 H   0  0  0  0  0  0  0  0  0  0  0  0
   16.1161   -2.8021   16.8049 H   0  0  0  0  0  0  0  0  0  0  0  0
   17.0473   -2.7769   18.2715 H   0  0  0  0  0  0  0  0  0  0  0  0
   16.2883   -0.5408   17.7934 H   0  0  0  0  0  0  0  0  0  0  0  0
   18.0282   -0.6124   17.7991 H   0  0  0  0  0  0  0  0  0  0  0  0
   16.7145    0.8123   15.9784 H   0  0  0  0  0  0  0  0  0  0  0  0
   18.2254    0.0381   15.5993 H   0  0  0  0  0  0  0  0  0  0  0  0
   18.3569   -3.2547   12.4230 H   0  0  0  0  0  0  0  0  0  0  0  0
   17.3120   -3.1146   10.3177 H   0  0  0  0  0  0  0  0  0  0  0  0
   16.4257   -2.0080   11.3432 H   0  0  0  0  0  0  0  0  0  0  0  0
   16.7090   -0.9910    9.1713 H   0  0  0  0  0  0  0  0  0  0  0  0
   18.4479   -1.2802    9.1605 H   0  0  0  0  0  0  0  0  0  0  0  0
   17.7418   -0.0837   10.2611 H   0  0  0  0  0  0  0  0  0  0  0  0
   19.8423   -2.9346   10.3049 H   0  0  0  0  0  0  0  0  0  0  0  0
   20.2293   -1.3358   10.9431 H   0  0  0  0  0  0  0  0  0  0  0  0
   20.6724   -3.9576   12.4692 H   0  0  0  0  0  0  0  0  0  0  0  0
   21.8935   -3.1475   11.4766 H   0  0  0  0  0  0  0  0  0  0  0  0
   21.2840   -2.3512   12.9208 H   0  0  0  0  0  0  0  0  0  0  0  0
   14.8433   -0.6038   16.1632 H   0  0  0  0  0  0  0  0  0  0  0  0
   14.2853   -2.5013   13.9712 H   0  0  0  0  0  0  0  0  0  0  0  0
   13.7306   -2.4676   16.9304 H   0  0  0  0  0  0  0  0  0  0  0  0
   14.2060   -3.7738   15.9113 H   0  0  0  0  0  0  0  0  0  0  0  0
   12.0563   -4.4798   16.1378 H   0  0  0  0  0  0  0  0  0  0  0  0
   11.6247   -2.9483   16.8112 H   0  0  0  0  0  0  0  0  0  0  0  0
   10.2701   -3.2839   14.8824 H   0  0  0  0  0  0  0  0  0  0  0  0
   11.6572   -3.5101   13.8162 H   0  0  0  0  0  0  0  0  0  0  0  0
   10.7326   -1.2751   13.8359 H   0  0  0  0  0  0  0  0  0  0  0  0
   12.8409   -1.0986   13.1529 H   0  0  0  0  0  0  0  0  0  0  0  0
   12.8491   -0.0536   14.5352 H   0  0  0  0  0  0  0  0  0  0  0  0
  1  2  1  0
  2  3  1  0
  3  4  1  0
  4  5  1  0
  5  6  1  0
  6  7  1  0
  7  8  2  3
  8  9  1  0
  9 10  2  0
  9 11  2  0
  9 12  1  0
 12 13  1  0
 13 14  1  0
 12 15  1  0
 15 16  1  0
  7 17  1  0
 17 18  1  0
 18 19  1  0
 19 20  1  0
 20 21  1  0
 21 22  1  0
 22 23  1  0
 23 18  1  0
  1 24  1  0
  1 25  1  0
  1 26  1  0
  2 27  1  0
  2 28  1  0
  3 29  1  0
  3 30  1  0
  4 31  1  0
  4 32  1  0
  5 33  1  0
  5 34  1  0
  6 35  1  0
  6 36  1  0
 12 37  1  0
 13 38  1  0
 13 39  1  0
 14 40  1  0
 14 41  1  0
 14 42  1  0
 15 43  1  0
 15 44  1  0
 16 45  1  0
 16 46  1  0
 16 47  1  0
 17 48  1  0
 18 49  1  0
 19 50  1  0
 19 51  1  0
 20 52  1  0
 20 53  1  0
 21 54  1  0
 21 55  1  0
 22 56  1  0
 23 57  1  0
 23 58  1  0
M  END
>  <Energy>  (702) 
25.877360023009501

>  <compound_id>  (702) 
1991

>  <target_id>  (702) 
1

>  <reference_id>  (702) 
124

>  <inspiration_ids>  (702) 
[31, 124]

>  <energy_score>  (702) 
-26.624747267208505

>  <distance_score>  (702) 
1.7705926197044193

>  <path>  (702) 
/opt/xchem-fragalysis-2/maxwin/BulkDock/SCRATCH/505732/C1991-P124/C1991-P124.minimised.mol

>  <scratch_subdir>  (702) 
/opt/xchem-fragalysis-2/maxwin/BulkDock/SCRATCH/505732/C1991-P124

>  <fragmenstein_runtime>  (702) 
16.74745798110962

>  <fragmenstein_outcome>  (702) 
too moved

>  <fragmenstein_mode>  (702) 
expansion

>  <fragmenstein_error>  (702) 


$$$$
C1995-P32
     RDKit          3D

 40 42  0  0  0  0  0  0  0  0999 V2000
   -9.8505  -25.6967   28.0691 O   0  0  0  0  0  0  0  0  0  0  0  0
  -10.0647  -24.6788   28.5845 C   0  0  0  0  0  0  0  0  0  0  0  0
   -9.6781  -24.1683   29.9815 N   0  0  0  0  0  0  0  0  0  0  0  0
   -9.0319  -24.8347   31.0673 C   0  0  0  0  0  0  0  0  0  0  0  0
   -8.1960  -23.7523   31.7532 C   0  0  0  0  0  0  0  0  0  0  0  0
   -8.9371  -22.7213   32.5965 C   0  0  0  0  0  0  0  0  0  0  0  0
  -10.0141  -23.3536   33.4174 C   0  0  0  0  0  0  0  0  0  0  0  0
  -10.7763  -24.1542   32.4889 N   0  0  0  0  0  0  0  0  0  0  0  0
  -10.0856  -25.3445   32.0202 C   0  0  0  0  0  0  0  0  0  0  0  0
  -10.8606  -23.5770   28.0013 C   0  0  0  0  0  0  0  0  0  0  0  0
  -10.0953  -22.4547   27.7796 C   0  0  0  0  0  0  0  0  0  0  0  0
  -10.4688  -21.2324   28.3415 C   0  0  0  0  0  0  0  0  0  0  0  0
  -11.5388  -21.1468   29.2020 C   0  0  0  0  0  0  0  0  0  0  0  0
  -12.3632  -22.2458   29.3326 C   0  0  0  0  0  0  0  0  0  0  0  0
  -12.0807  -23.4165   28.6308 C   0  0  0  0  0  0  0  0  0  0  0  0
  -12.9373  -24.5985   28.6518 C   0  0  0  0  0  0  0  0  0  0  0  0
  -12.9629  -25.3250   29.6339 O   0  0  0  0  0  0  0  0  0  0  0  0
  -13.7133  -24.9080   27.4567 C   0  0  0  0  0  0  0  0  0  0  0  0
  -13.8262  -24.2510   26.2066 C   0  0  0  0  0  0  0  0  0  0  0  0
  -14.6968  -24.8441   25.3813 N   0  0  0  0  0  0  0  0  0  0  0  0
  -15.0944  -25.9262   26.0735 N   0  0  0  0  0  0  0  0  0  0  0  0
  -14.5554  -25.9953   27.3213 C   0  0  0  0  0  0  0  0  0  0  0  0
  -10.0979  -23.2619   30.1381 H   0  0  0  0  0  0  0  0  0  0  0  0
   -8.4591  -25.6475   30.6476 H   0  0  0  0  0  0  0  0  0  0  0  0
   -7.6735  -23.2326   30.9650 H   0  0  0  0  0  0  0  0  0  0  0  0
   -7.4405  -24.2033   32.3787 H   0  0  0  0  0  0  0  0  0  0  0  0
   -8.2398  -22.1676   33.2291 H   0  0  0  0  0  0  0  0  0  0  0  0
   -9.4151  -21.9845   31.9465 H   0  0  0  0  0  0  0  0  0  0  0  0
  -10.6526  -22.5676   33.8370 H   0  0  0  0  0  0  0  0  0  0  0  0
   -9.6252  -23.9224   34.2622 H   0  0  0  0  0  0  0  0  0  0  0  0
  -11.7048  -24.3435   32.8329 H   0  0  0  0  0  0  0  0  0  0  0  0
  -10.7974  -25.9855   31.4881 H   0  0  0  0  0  0  0  0  0  0  0  0
   -9.6696  -25.9370   32.8357 H   0  0  0  0  0  0  0  0  0  0  0  0
   -9.0967  -22.5866   27.3856 H   0  0  0  0  0  0  0  0  0  0  0  0
   -9.8652  -20.3503   28.2093 H   0  0  0  0  0  0  0  0  0  0  0  0
  -11.7334  -20.2232   29.7378 H   0  0  0  0  0  0  0  0  0  0  0  0
  -13.2360  -22.1803   29.9606 H   0  0  0  0  0  0  0  0  0  0  0  0
  -13.3302  -23.3480   25.8667 H   0  0  0  0  0  0  0  0  0  0  0  0
  -15.7442  -26.5714   25.6347 H   0  0  0  0  0  0  0  0  0  0  0  0
  -14.7970  -26.8018   27.9999 H   0  0  0  0  0  0  0  0  0  0  0  0
  1  2  2  0
  2  3  1  0
  3  4  1  0
  4  5  1  0
  5  6  1  0
  6  7  1  0
  7  8  1  0
  8  9  1  0
  2 10  1  0
 10 11  2  0
 11 12  1  0
 12 13  2  0
 13 14  1  0
 14 15  2  0
 15 16  1  0
 16 17  2  0
 16 18  1  0
 18 19  1  0
 19 20  2  0
 20 21  1  0
 21 22  1  0
  9  4  1  0
 15 10  1  0
 22 18  2  0
  3 23  1  0
  4 24  1  0
  5 25  1  0
  5 26  1  0
  6 27  1  0
  6 28  1  0
  7 29  1  0
  7 30  1  0
  8 31  1  0
  9 32  1  0
  9 33  1  0
 11 34  1  0
 12 35  1  0
 13 36  1  0
 14 37  1  0
 19 38  1  0
 21 39  1  0
 22 40  1  0
M  END
>  <Energy>  (703) 
109.07903862437591

>  <compound_id>  (703) 
1995

>  <target_id>  (703) 
1

>  <reference_id>  (703) 
32

>  <inspiration_ids>  (703) 
[32, 34]

>  <energy_score>  (703) 
8.796792722796681

>  <distance_score>  (703) 
2.3898933015103827

>  <path>  (703) 
/opt/xchem-fragalysis-2/maxwin/BulkDock/SCRATCH/505732/C1995-P32/C1995-P32.minimised.mol

>  <scratch_subdir>  (703) 
/opt/xchem-fragalysis-2/maxwin/BulkDock/SCRATCH/505732/C1995-P32

>  <fragmenstein_runtime>  (703) 
21.777187824249268

>  <fragmenstein_outcome>  (703) 
too moved

>  <fragmenstein_mode>  (703) 
expansion

>  <fragmenstein_error>  (703) 


$$$$
C1995-P34
     RDKit          3D

 40 42  0  0  0  0  0  0  0  0999 V2000
  -10.7486  -26.1389   30.5467 O   0  0  0  0  0  0  0  0  0  0  0  0
  -10.3924  -25.0998   30.1930 C   0  0  0  0  0  0  0  0  0  0  0  0
   -9.2564  -24.2363   30.6804 N   0  0  0  0  0  0  0  0  0  0  0  0
   -8.3665  -24.4123   31.7675 C   0  0  0  0  0  0  0  0  0  0  0  0
   -8.7227  -23.2688   32.7251 C   0  0  0  0  0  0  0  0  0  0  0  0
   -9.6434  -23.7773   33.7927 C   0  0  0  0  0  0  0  0  0  0  0  0
   -8.8096  -24.7550   34.5851 C   0  0  0  0  0  0  0  0  0  0  0  0
   -8.0985  -25.7642   33.7911 N   0  0  0  0  0  0  0  0  0  0  0  0
   -8.5070  -25.7965   32.4016 C   0  0  0  0  0  0  0  0  0  0  0  0
  -11.1068  -24.3290   29.1830 C   0  0  0  0  0  0  0  0  0  0  0  0
  -11.2442  -25.0458   27.9801 C   0  0  0  0  0  0  0  0  0  0  0  0
  -11.5259  -24.3686   26.8238 C   0  0  0  0  0  0  0  0  0  0  0  0
  -11.5943  -22.9884   26.8796 C   0  0  0  0  0  0  0  0  0  0  0  0
  -11.4812  -22.2821   28.0870 C   0  0  0  0  0  0  0  0  0  0  0  0
  -11.3428  -22.9377   29.2998 C   0  0  0  0  0  0  0  0  0  0  0  0
  -11.2504  -22.0175   30.4754 C   0  0  0  0  0  0  0  0  0  0  0  0
  -10.4653  -21.0777   30.3131 O   0  0  0  0  0  0  0  0  0  0  0  0
  -12.0470  -22.0225   31.6933 C   0  0  0  0  0  0  0  0  0  0  0  0
  -13.3678  -22.3845   32.0231 C   0  0  0  0  0  0  0  0  0  0  0  0
  -13.7258  -22.0599   33.2728 N   0  0  0  0  0  0  0  0  0  0  0  0
  -12.6145  -21.5218   33.7787 N   0  0  0  0  0  0  0  0  0  0  0  0
  -11.6375  -21.3722   32.8489 C   0  0  0  0  0  0  0  0  0  0  0  0
   -9.1773  -23.4251   30.0931 H   0  0  0  0  0  0  0  0  0  0  0  0
   -7.3567  -24.2627   31.3931 H   0  0  0  0  0  0  0  0  0  0  0  0
   -9.1994  -22.4294   32.2291 H   0  0  0  0  0  0  0  0  0  0  0  0
   -7.8102  -22.8701   33.1714 H   0  0  0  0  0  0  0  0  0  0  0  0
  -10.0175  -22.9798   34.4342 H   0  0  0  0  0  0  0  0  0  0  0  0
  -10.5325  -24.2207   33.3364 H   0  0  0  0  0  0  0  0  0  0  0  0
   -9.4162  -25.2050   35.3619 H   0  0  0  0  0  0  0  0  0  0  0  0
   -8.0400  -24.2052   35.1282 H   0  0  0  0  0  0  0  0  0  0  0  0
   -7.1193  -25.4416   33.7475 H   0  0  0  0  0  0  0  0  0  0  0  0
   -9.5154  -26.2020   32.3773 H   0  0  0  0  0  0  0  0  0  0  0  0
   -7.8871  -26.5114   31.8545 H   0  0  0  0  0  0  0  0  0  0  0  0
  -11.0545  -26.1158   27.9473 H   0  0  0  0  0  0  0  0  0  0  0  0
  -11.6152  -24.9061   25.8898 H   0  0  0  0  0  0  0  0  0  0  0  0
  -11.7408  -22.4506   25.9447 H   0  0  0  0  0  0  0  0  0  0  0  0
  -11.5019  -21.2022   28.0582 H   0  0  0  0  0  0  0  0  0  0  0  0
  -14.1378  -22.8125   31.4090 H   0  0  0  0  0  0  0  0  0  0  0  0
  -12.6108  -21.2324   34.7498 H   0  0  0  0  0  0  0  0  0  0  0  0
  -10.7293  -20.8373   33.0783 H   0  0  0  0  0  0  0  0  0  0  0  0
  1  2  2  0
  2  3  1  0
  3  4  1  0
  4  5  1  0
  5  6  1  0
  6  7  1  0
  7  8  1  0
  8  9  1  0
  2 10  1  0
 10 11  2  0
 11 12  1  0
 12 13  2  0
 13 14  1  0
 14 15  2  0
 15 16  1  0
 16 17  2  0
 16 18  1  0
 18 19  1  0
 19 20  2  0
 20 21  1  0
 21 22  1  0
  9  4  1  0
 15 10  1  0
 22 18  2  0
  3 23  1  0
  4 24  1  0
  5 25  1  0
  5 26  1  0
  6 27  1  0
  6 28  1  0
  7 29  1  0
  7 30  1  0
  8 31  1  0
  9 32  1  0
  9 33  1  0
 11 34  1  0
 12 35  1  0
 13 36  1  0
 14 37  1  0
 19 38  1  0
 21 39  1  0
 22 40  1  0
M  END
>  <Energy>  (704) 
109.12973907124118

>  <compound_id>  (704) 
1995

>  <target_id>  (704) 
1

>  <reference_id>  (704) 
34

>  <inspiration_ids>  (704) 
[32, 34]

>  <energy_score>  (704) 
8.84749316966358

>  <distance_score>  (704) 
2.0927941437515485

>  <path>  (704) 
/opt/xchem-fragalysis-2/maxwin/BulkDock/SCRATCH/505732/C1995-P34/C1995-P34.minimised.mol

>  <scratch_subdir>  (704) 
/opt/xchem-fragalysis-2/maxwin/BulkDock/SCRATCH/505732/C1995-P34

>  <fragmenstein_runtime>  (704) 
14.124503374099731

>  <fragmenstein_outcome>  (704) 
too moved

>  <fragmenstein_mode>  (704) 
expansion

>  <fragmenstein_error>  (704) 


$$$$
C1996-P32
     RDKit          3D

 62 65  0  0  0  0  0  0  0  0999 V2000
   -9.3136  -23.2583   35.0208 O   0  0  0  0  0  0  0  0  0  0  0  0
   -9.4237  -22.9423   33.8527 C   0  0  0  0  0  0  0  0  0  0  0  0
   -8.6551  -23.4487   32.8723 O   0  0  0  0  0  0  0  0  0  0  0  0
  -10.3835  -21.9710   33.3306 C   0  0  0  0  0  0  0  0  0  0  0  0
  -11.1850  -21.2239   34.1599 C   0  0  0  0  0  0  0  0  0  0  0  0
  -12.1404  -20.3572   33.6890 C   0  0  0  0  0  0  0  0  0  0  0  0
  -12.2354  -20.1893   32.3371 C   0  0  0  0  0  0  0  0  0  0  0  0
  -11.3480  -20.8092   31.4723 C   0  0  0  0  0  0  0  0  0  0  0  0
  -11.4000  -20.5694   30.1128 N   0  0  0  0  0  0  0  0  0  0  0  0
  -10.9867  -21.4013   29.0842 C   0  0  0  0  0  0  0  0  0  0  0  0
  -11.4838  -21.1307   27.8953 N   0  0  0  0  0  0  0  0  0  0  0  0
  -11.4274  -22.1204   26.9971 C   0  0  0  0  0  0  0  0  0  0  0  0
  -10.8764  -23.3487   27.2440 C   0  0  0  0  0  0  0  0  0  0  0  0
  -11.1731  -24.5227   26.3957 C   0  0  0  0  0  0  0  0  0  0  0  0
  -12.6867  -24.6107   26.0887 C   0  0  0  0  0  0  0  0  0  0  0  0
  -13.5513  -24.4569   27.2555 N   0  0  0  0  0  0  0  0  0  0  0  0
  -14.7750  -25.2316   27.1594 C   0  0  0  0  0  0  0  0  0  0  0  0
  -15.4949  -24.8601   25.9601 N   0  0  0  0  0  0  0  0  0  0  0  0
  -16.7240  -25.6413   25.8493 C   0  0  0  0  0  0  0  0  0  0  0  0
  -16.4306  -27.1423   25.9149 C   0  0  0  0  0  0  0  0  0  0  0  0
  -15.7304  -27.5438   27.2062 C   0  0  0  0  0  0  0  0  0  0  0  0
  -14.4712  -26.7486   27.2849 C   0  0  0  0  0  0  0  0  0  0  0  0
  -13.7435  -26.9351   28.4929 N   0  0  0  0  0  0  0  0  0  0  0  0
  -12.8907  -28.1010   28.9619 C   0  0  0  0  0  0  0  0  0  0  0  0
  -12.7003  -29.1348   28.4778 O   0  0  0  0  0  0  0  0  0  0  0  0
  -12.2197  -27.6289   30.1732 C   0  0  0  0  0  0  0  0  0  0  0  0
  -12.2461  -28.3331   31.3556 C   0  0  0  0  0  0  0  0  0  0  0  0
  -11.4926  -27.8199   32.3983 C   0  0  0  0  0  0  0  0  0  0  0  0
  -10.7579  -26.6194   32.2502 C   0  0  0  0  0  0  0  0  0  0  0  0
  -10.7805  -25.8957   31.0751 C   0  0  0  0  0  0  0  0  0  0  0  0
  -11.4939  -26.4233   30.0244 C   0  0  0  0  0  0  0  0  0  0  0  0
  -10.1614  -23.4310   28.3919 C   0  0  0  0  0  0  0  0  0  0  0  0
  -10.2408  -22.4888   29.3192 N   0  0  0  0  0  0  0  0  0  0  0  0
  -10.4747  -21.7497   31.9916 C   0  0  0  0  0  0  0  0  0  0  0  0
   -8.1194  -24.1627   33.3015 H   0  0  0  0  0  0  0  0  0  0  0  0
  -11.0395  -21.3027   35.2059 H   0  0  0  0  0  0  0  0  0  0  0  0
  -12.8584  -19.8780   34.3354 H   0  0  0  0  0  0  0  0  0  0  0  0
  -13.0907  -19.6411   31.9869 H   0  0  0  0  0  0  0  0  0  0  0  0
  -11.9263  -19.8015   29.7453 H   0  0  0  0  0  0  0  0  0  0  0  0
  -11.9017  -21.9165   26.0433 H   0  0  0  0  0  0  0  0  0  0  0  0
  -10.8570  -25.4497   26.8883 H   0  0  0  0  0  0  0  0  0  0  0  0
  -10.5780  -24.4347   25.4887 H   0  0  0  0  0  0  0  0  0  0  0  0
  -12.9831  -23.8070   25.4051 H   0  0  0  0  0  0  0  0  0  0  0  0
  -12.8443  -25.5619   25.5740 H   0  0  0  0  0  0  0  0  0  0  0  0
  -13.0431  -24.7568   28.0787 H   0  0  0  0  0  0  0  0  0  0  0  0
  -15.3842  -24.9414   28.0261 H   0  0  0  0  0  0  0  0  0  0  0  0
  -15.7090  -23.8660   26.0305 H   0  0  0  0  0  0  0  0  0  0  0  0
  -17.2124  -25.4097   24.8972 H   0  0  0  0  0  0  0  0  0  0  0  0
  -17.4245  -25.3595   26.6452 H   0  0  0  0  0  0  0  0  0  0  0  0
  -15.8230  -27.4389   25.0564 H   0  0  0  0  0  0  0  0  0  0  0  0
  -17.3751  -27.6931   25.8339 H   0  0  0  0  0  0  0  0  0  0  0  0
  -15.5211  -28.6198   27.2052 H   0  0  0  0  0  0  0  0  0  0  0  0
  -16.3811  -27.3483   28.0677 H   0  0  0  0  0  0  0  0  0  0  0  0
  -13.8145  -27.1025   26.4820 H   0  0  0  0  0  0  0  0  0  0  0  0
  -13.7489  -26.2128   29.2042 H   0  0  0  0  0  0  0  0  0  0  0  0
  -12.7831  -29.2715   31.4459 H   0  0  0  0  0  0  0  0  0  0  0  0
  -11.4445  -28.4020   33.3097 H   0  0  0  0  0  0  0  0  0  0  0  0
  -10.0725  -26.2443   33.0040 H   0  0  0  0  0  0  0  0  0  0  0  0
  -10.1907  -24.9882   30.9783 H   0  0  0  0  0  0  0  0  0  0  0  0
  -11.4403  -25.9324   29.0613 H   0  0  0  0  0  0  0  0  0  0  0  0
   -9.5746  -24.3039   28.6570 H   0  0  0  0  0  0  0  0  0  0  0  0
   -9.8104  -22.3242   31.3687 H   0  0  0  0  0  0  0  0  0  0  0  0
  1  2  2  0
  2  3  1  0
  2  4  1  0
  4  5  2  0
  5  6  1  0
  6  7  2  0
  7  8  1  0
  8  9  1  0
  9 10  1  0
 10 11  2  0
 11 12  1  0
 12 13  2  0
 13 14  1  0
 14 15  1  0
 15 16  1  0
 16 17  1  0
 17 18  1  0
 18 19  1  0
 19 20  1  0
 20 21  1  0
 21 22  1  0
 22 23  1  0
 23 24  1  0
 24 25  2  0
 24 26  1  0
 26 27  2  0
 27 28  1  0
 28 29  2  0
 29 30  1  0
 30 31  2  0
 13 32  1  0
 32 33  2  0
  8 34  2  0
 34  4  1  0
 33 10  1  0
 22 17  1  0
 31 26  1  0
  3 35  1  0
  5 36  1  0
  6 37  1  0
  7 38  1  0
  9 39  1  0
 12 40  1  0
 14 41  1  0
 14 42  1  0
 15 43  1  0
 15 44  1  0
 16 45  1  0
 17 46  1  0
 18 47  1  0
 19 48  1  0
 19 49  1  0
 20 50  1  0
 20 51  1  0
 21 52  1  0
 21 53  1  0
 22 54  1  0
 23 55  1  0
 27 56  1  0
 28 57  1  0
 29 58  1  0
 30 59  1  0
 31 60  1  0
 32 61  1  0
 34 62  1  0
M  END
>  <Energy>  (705) 
0.32201754021531404

>  <compound_id>  (705) 
1996

>  <target_id>  (705) 
1

>  <reference_id>  (705) 
32

>  <inspiration_ids>  (705) 
[32, 35]

>  <energy_score>  (705) 
-24.112289606680548

>  <distance_score>  (705) 
3.9118082971287857

>  <path>  (705) 
/opt/xchem-fragalysis-2/maxwin/BulkDock/SCRATCH/505732/C1996-P32/C1996-P32.minimised.mol

>  <scratch_subdir>  (705) 
/opt/xchem-fragalysis-2/maxwin/BulkDock/SCRATCH/505732/C1996-P32

>  <fragmenstein_runtime>  (705) 
28.528862714767456

>  <fragmenstein_outcome>  (705) 
too moved

>  <fragmenstein_mode>  (705) 
expansion

>  <fragmenstein_error>  (705) 


$$$$
C1996-P35
     RDKit          3D

 62 65  0  0  0  0  0  0  0  0999 V2000
   -8.7523  -18.8316   38.3465 O   0  0  0  0  0  0  0  0  0  0  0  0
   -8.9872  -19.8376   37.7022 C   0  0  0  0  0  0  0  0  0  0  0  0
   -8.4784  -21.0200   38.0782 O   0  0  0  0  0  0  0  0  0  0  0  0
   -9.8486  -19.9244   36.5008 C   0  0  0  0  0  0  0  0  0  0  0  0
  -10.5742  -18.7816   36.1696 C   0  0  0  0  0  0  0  0  0  0  0  0
  -11.4235  -18.8083   35.0773 C   0  0  0  0  0  0  0  0  0  0  0  0
  -11.5037  -19.9553   34.2869 C   0  0  0  0  0  0  0  0  0  0  0  0
  -10.7872  -21.1051   34.5712 C   0  0  0  0  0  0  0  0  0  0  0  0
  -10.8382  -22.2395   33.7471 N   0  0  0  0  0  0  0  0  0  0  0  0
  -11.4663  -22.4814   32.5160 C   0  0  0  0  0  0  0  0  0  0  0  0
  -12.0555  -23.6712   32.4442 N   0  0  0  0  0  0  0  0  0  0  0  0
  -12.4764  -24.1323   31.2511 C   0  0  0  0  0  0  0  0  0  0  0  0
  -12.3083  -23.4589   30.0730 C   0  0  0  0  0  0  0  0  0  0  0  0
  -12.5659  -24.0631   28.7198 C   0  0  0  0  0  0  0  0  0  0  0  0
  -13.8212  -24.9621   28.5937 C   0  0  0  0  0  0  0  0  0  0  0  0
  -13.5426  -26.3632   28.8012 N   0  0  0  0  0  0  0  0  0  0  0  0
  -14.6895  -27.2017   29.2109 C   0  0  0  0  0  0  0  0  0  0  0  0
  -15.4606  -27.5454   28.0449 N   0  0  0  0  0  0  0  0  0  0  0  0
  -14.8615  -28.5198   27.1416 C   0  0  0  0  0  0  0  0  0  0  0  0
  -13.7572  -29.3945   27.7449 C   0  0  0  0  0  0  0  0  0  0  0  0
  -14.0305  -29.7115   29.2051 C   0  0  0  0  0  0  0  0  0  0  0  0
  -14.1512  -28.4414   30.0419 C   0  0  0  0  0  0  0  0  0  0  0  0
  -12.8699  -27.9724   30.5091 N   0  0  0  0  0  0  0  0  0  0  0  0
  -11.9021  -28.5807   31.3316 C   0  0  0  0  0  0  0  0  0  0  0  0
  -11.9194  -29.6145   31.9238 O   0  0  0  0  0  0  0  0  0  0  0  0
  -10.7759  -27.6151   31.4545 C   0  0  0  0  0  0  0  0  0  0  0  0
  -10.5520  -27.0495   32.7051 C   0  0  0  0  0  0  0  0  0  0  0  0
   -9.7295  -25.9560   32.8453 C   0  0  0  0  0  0  0  0  0  0  0  0
   -9.1989  -25.3809   31.7085 C   0  0  0  0  0  0  0  0  0  0  0  0
   -9.4113  -25.9325   30.4453 C   0  0  0  0  0  0  0  0  0  0  0  0
  -10.1709  -27.0840   30.3147 C   0  0  0  0  0  0  0  0  0  0  0  0
  -11.7580  -22.2049   30.2498 C   0  0  0  0  0  0  0  0  0  0  0  0
  -11.3530  -21.6867   31.4428 N   0  0  0  0  0  0  0  0  0  0  0  0
   -9.9770  -21.0883   35.7169 C   0  0  0  0  0  0  0  0  0  0  0  0
   -7.8890  -20.7808   38.8247 H   0  0  0  0  0  0  0  0  0  0  0  0
  -10.4896  -17.8723   36.7599 H   0  0  0  0  0  0  0  0  0  0  0  0
  -12.0019  -17.9250   34.8174 H   0  0  0  0  0  0  0  0  0  0  0  0
  -12.1488  -19.9605   33.4285 H   0  0  0  0  0  0  0  0  0  0  0  0
  -10.9664  -23.0940   34.2785 H   0  0  0  0  0  0  0  0  0  0  0  0
  -12.9218  -25.1192   31.2987 H   0  0  0  0  0  0  0  0  0  0  0  0
  -11.6704  -24.6176   28.4099 H   0  0  0  0  0  0  0  0  0  0  0  0
  -12.6639  -23.2432   27.9990 H   0  0  0  0  0  0  0  0  0  0  0  0
  -14.2023  -24.9030   27.5711 H   0  0  0  0  0  0  0  0  0  0  0  0
  -14.5888  -24.6124   29.2869 H   0  0  0  0  0  0  0  0  0  0  0  0
  -13.0906  -26.7798   27.9937 H   0  0  0  0  0  0  0  0  0  0  0  0
  -15.3178  -26.6264   29.9028 H   0  0  0  0  0  0  0  0  0  0  0  0
  -15.7633  -26.7140   27.5476 H   0  0  0  0  0  0  0  0  0  0  0  0
  -14.4584  -27.9944   26.2692 H   0  0  0  0  0  0  0  0  0  0  0  0
  -15.6655  -29.1640   26.7676 H   0  0  0  0  0  0  0  0  0  0  0  0
  -12.7820  -28.9025   27.6522 H   0  0  0  0  0  0  0  0  0  0  0  0
  -13.6910  -30.3327   27.1823 H   0  0  0  0  0  0  0  0  0  0  0  0
  -13.2589  -30.3827   29.5972 H   0  0  0  0  0  0  0  0  0  0  0  0
  -14.9791  -30.2612   29.2644 H   0  0  0  0  0  0  0  0  0  0  0  0
  -14.7775  -28.6312   30.9206 H   0  0  0  0  0  0  0  0  0  0  0  0
  -12.5409  -27.0478   30.2379 H   0  0  0  0  0  0  0  0  0  0  0  0
  -11.0474  -27.4455   33.5797 H   0  0  0  0  0  0  0  0  0  0  0  0
   -9.5537  -25.5183   33.8204 H   0  0  0  0  0  0  0  0  0  0  0  0
   -8.6221  -24.4811   31.8420 H   0  0  0  0  0  0  0  0  0  0  0  0
   -8.9836  -25.4601   29.5703 H   0  0  0  0  0  0  0  0  0  0  0  0
  -10.3477  -27.5178   29.3356 H   0  0  0  0  0  0  0  0  0  0  0  0
  -11.5626  -21.5598   29.3960 H   0  0  0  0  0  0  0  0  0  0  0  0
   -9.4338  -21.9861   35.9930 H   0  0  0  0  0  0  0  0  0  0  0  0
  1  2  2  0
  2  3  1  0
  2  4  1  0
  4  5  2  0
  5  6  1  0
  6  7  2  0
  7  8  1  0
  8  9  1  0
  9 10  1  0
 10 11  2  0
 11 12  1  0
 12 13  2  0
 13 14  1  0
 14 15  1  0
 15 16  1  0
 16 17  1  0
 17 18  1  0
 18 19  1  0
 19 20  1  0
 20 21  1  0
 21 22  1  0
 22 23  1  0
 23 24  1  0
 24 25  2  0
 24 26  1  0
 26 27  2  0
 27 28  1  0
 28 29  2  0
 29 30  1  0
 30 31  2  0
 13 32  1  0
 32 33  2  0
  8 34  2  0
 34  4  1  0
 33 10  1  0
 22 17  1  0
 31 26  1  0
  3 35  1  0
  5 36  1  0
  6 37  1  0
  7 38  1  0
  9 39  1  0
 12 40  1  0
 14 41  1  0
 14 42  1  0
 15 43  1  0
 15 44  1  0
 16 45  1  0
 17 46  1  0
 18 47  1  0
 19 48  1  0
 19 49  1  0
 20 50  1  0
 20 51  1  0
 21 52  1  0
 21 53  1  0
 22 54  1  0
 23 55  1  0
 27 56  1  0
 28 57  1  0
 29 58  1  0
 30 59  1  0
 31 60  1  0
 32 61  1  0
 34 62  1  0
M  END
>  <Energy>  (706) 
-15.338887618838887

>  <compound_id>  (706) 
1996

>  <target_id>  (706) 
1

>  <reference_id>  (706) 
35

>  <inspiration_ids>  (706) 
[32, 35]

>  <energy_score>  (706) 
-45.83500036157784

>  <distance_score>  (706) 
4.856713401683655

>  <path>  (706) 
/opt/xchem-fragalysis-2/maxwin/BulkDock/SCRATCH/505732/C1996-P35/C1996-P35.minimised.mol

>  <scratch_subdir>  (706) 
/opt/xchem-fragalysis-2/maxwin/BulkDock/SCRATCH/505732/C1996-P35

>  <fragmenstein_runtime>  (706) 
32.095136404037476

>  <fragmenstein_outcome>  (706) 
too moved

>  <fragmenstein_mode>  (706) 
expansion

>  <fragmenstein_error>  (706) 


$$$$
C1997-P32
     RDKit          3D

 65 68  0  0  0  0  0  0  0  0999 V2000
  -10.4320  -23.7628   32.2464 C   0  0  0  0  0  0  0  0  0  0  0  0
   -8.9007  -24.0046   31.4827 S   0  0  0  0  0  0  0  0  0  0  0  0
   -8.6988  -25.4291   31.6356 O   0  0  0  0  0  0  0  0  0  0  0  0
   -8.0022  -23.0162   32.0186 O   0  0  0  0  0  0  0  0  0  0  0  0
   -9.0369  -23.7453   29.7110 C   0  0  0  0  0  0  0  0  0  0  0  0
   -9.8052  -22.7386   29.1372 C   0  0  0  0  0  0  0  0  0  0  0  0
  -10.3841  -22.9287   27.8769 C   0  0  0  0  0  0  0  0  0  0  0  0
  -10.4039  -24.2224   27.3849 C   0  0  0  0  0  0  0  0  0  0  0  0
  -11.6297  -24.9129   27.1069 N   0  0  0  0  0  0  0  0  0  0  0  0
  -12.8933  -24.1299   26.9269 C   0  0  0  0  0  0  0  0  0  0  0  0
  -13.7880  -24.1741   28.2267 C   0  0  0  0  0  0  0  0  0  0  0  0
  -13.1045  -23.7452   29.4938 N   0  0  0  0  0  0  0  0  0  0  0  0
  -12.8727  -22.1241   29.8089 C   0  0  0  0  0  0  0  0  0  0  0  0
  -13.0832  -21.0837   31.0770 N   0  0  0  0  0  0  0  0  0  0  0  0
  -13.7347  -20.3452   31.9124 C   0  0  0  0  0  0  0  0  0  0  0  0
  -13.3533  -19.8001   33.1990 N   0  0  0  0  0  0  0  0  0  0  0  0
  -12.2027  -19.9809   33.9809 C   0  0  0  0  0  0  0  0  0  0  0  0
  -11.7570  -18.5784   34.2953 C   0  0  0  0  0  0  0  0  0  0  0  0
  -11.0132  -18.0314   33.1184 C   0  0  0  0  0  0  0  0  0  0  0  0
  -10.6517  -19.0769   32.0436 C   0  0  0  0  0  0  0  0  0  0  0  0
  -10.2113  -20.3614   32.5500 N   0  0  0  0  0  0  0  0  0  0  0  0
  -11.1818  -20.9395   33.4487 C   0  0  0  0  0  0  0  0  0  0  0  0
  -15.3677  -19.8132   31.8837 C   0  0  0  0  0  0  0  0  0  0  0  0
  -16.4113  -20.7020   32.3111 C   0  0  0  0  0  0  0  0  0  0  0  0
  -17.6651  -20.3406   32.8362 C   0  0  0  0  0  0  0  0  0  0  0  0
  -17.8809  -19.0386   33.2000 C   0  0  0  0  0  0  0  0  0  0  0  0
  -16.8318  -18.1592   33.0326 C   0  0  0  0  0  0  0  0  0  0  0  0
  -15.6480  -18.5244   32.3493 C   0  0  0  0  0  0  0  0  0  0  0  0
  -12.0922  -24.8908   29.5755 C   0  0  0  0  0  0  0  0  0  0  0  0
  -11.8157  -25.7911   28.2990 C   0  0  0  0  0  0  0  0  0  0  0  0
   -9.3229  -25.0362   27.7164 C   0  0  0  0  0  0  0  0  0  0  0  0
   -8.6487  -24.8016   28.9029 C   0  0  0  0  0  0  0  0  0  0  0  0
  -10.9489  -24.7207   32.2763 H   0  0  0  0  0  0  0  0  0  0  0  0
  -10.9879  -23.0285   31.6797 H   0  0  0  0  0  0  0  0  0  0  0  0
  -10.2463  -23.4461   33.2721 H   0  0  0  0  0  0  0  0  0  0  0  0
  -10.1431  -21.8867   29.7087 H   0  0  0  0  0  0  0  0  0  0  0  0
  -11.0569  -22.1740   27.4862 H   0  0  0  0  0  0  0  0  0  0  0  0
  -12.7126  -23.1092   26.5817 H   0  0  0  0  0  0  0  0  0  0  0  0
  -13.4589  -24.6246   26.1279 H   0  0  0  0  0  0  0  0  0  0  0  0
  -14.8052  -23.8434   28.0704 H   0  0  0  0  0  0  0  0  0  0  0  0
  -14.1055  -25.2174   28.3873 H   0  0  0  0  0  0  0  0  0  0  0  0
  -12.2033  -21.6519   29.1014 H   0  0  0  0  0  0  0  0  0  0  0  0
  -13.8332  -21.9856   29.4721 H   0  0  0  0  0  0  0  0  0  0  0  0
  -14.1509  -19.3415   33.6046 H   0  0  0  0  0  0  0  0  0  0  0  0
  -12.6050  -20.5323   34.8253 H   0  0  0  0  0  0  0  0  0  0  0  0
  -11.1652  -18.5281   35.1959 H   0  0  0  0  0  0  0  0  0  0  0  0
  -12.6148  -17.9239   34.5133 H   0  0  0  0  0  0  0  0  0  0  0  0
  -11.6079  -17.1979   32.8433 H   0  0  0  0  0  0  0  0  0  0  0  0
  -10.1636  -17.3928   33.3351 H   0  0  0  0  0  0  0  0  0  0  0  0
  -11.4423  -19.2639   31.3310 H   0  0  0  0  0  0  0  0  0  0  0  0
   -9.8330  -18.6841   31.4677 H   0  0  0  0  0  0  0  0  0  0  0  0
  -10.0514  -21.0065   31.7911 H   0  0  0  0  0  0  0  0  0  0  0  0
  -10.6548  -21.4166   34.2753 H   0  0  0  0  0  0  0  0  0  0  0  0
  -11.7112  -21.7543   32.9740 H   0  0  0  0  0  0  0  0  0  0  0  0
  -16.2639  -21.7805   32.3045 H   0  0  0  0  0  0  0  0  0  0  0  0
  -18.3959  -21.1104   33.0681 H   0  0  0  0  0  0  0  0  0  0  0  0
  -18.7879  -18.7455   33.7187 H   0  0  0  0  0  0  0  0  0  0  0  0
  -16.8795  -17.2128   33.5580 H   0  0  0  0  0  0  0  0  0  0  0  0
  -14.8368  -17.8344   32.4660 H   0  0  0  0  0  0  0  0  0  0  0  0
  -11.2004  -24.5828   30.0719 H   0  0  0  0  0  0  0  0  0  0  0  0
  -12.5070  -25.6668   30.2278 H   0  0  0  0  0  0  0  0  0  0  0  0
  -10.9963  -26.4920   28.4989 H   0  0  0  0  0  0  0  0  0  0  0  0
  -12.6475  -26.4816   28.1011 H   0  0  0  0  0  0  0  0  0  0  0  0
   -9.1872  -25.9885   27.2113 H   0  0  0  0  0  0  0  0  0  0  0  0
   -7.9727  -25.5592   29.2621 H   0  0  0  0  0  0  0  0  0  0  0  0
  1  2  1  0
  2  3  2  0
  2  4  2  0
  2  5  1  0
  5  6  2  0
  6  7  1  0
  7  8  2  0
  8  9  1  0
  9 10  1  0
 10 11  1  0
 11 12  1  0
 12 13  1  0
 13 14  1  0
 14 15  2  3
 15 16  1  0
 16 17  1  0
 17 18  1  0
 18 19  1  0
 19 20  1  0
 20 21  1  0
 21 22  1  0
 15 23  1  0
 23 24  2  0
 24 25  1  0
 25 26  2  0
 26 27  1  0
 27 28  2  0
 12 29  1  0
 29 30  1  0
  8 31  1  0
 31 32  2  0
 32  5  1  0
 30  9  1  0
 22 17  1  0
 28 23  1  0
  1 33  1  0
  1 34  1  0
  1 35  1  0
  6 36  1  0
  7 37  1  0
 10 38  1  0
 10 39  1  0
 11 40  1  0
 11 41  1  0
 13 42  1  0
 13 43  1  0
 16 44  1  0
 17 45  1  0
 18 46  1  0
 18 47  1  0
 19 48  1  0
 19 49  1  0
 20 50  1  0
 20 51  1  0
 21 52  1  0
 22 53  1  0
 22 54  1  0
 24 55  1  0
 25 56  1  0
 26 57  1  0
 27 58  1  0
 28 59  1  0
 29 60  1  0
 29 61  1  0
 30 62  1  0
 30 63  1  0
 31 64  1  0
 32 65  1  0
M  END
>  <Energy>  (707) 
402.6120518075096

>  <compound_id>  (707) 
1997

>  <target_id>  (707) 
1

>  <reference_id>  (707) 
32

>  <inspiration_ids>  (707) 
[32, 38]

>  <energy_score>  (707) 
219.09303506331997

>  <distance_score>  (707) 
3.3883079075575164

>  <path>  (707) 
/opt/xchem-fragalysis-2/maxwin/BulkDock/SCRATCH/505732/C1997-P32/C1997-P32.minimised.mol

>  <scratch_subdir>  (707) 
/opt/xchem-fragalysis-2/maxwin/BulkDock/SCRATCH/505732/C1997-P32

>  <fragmenstein_runtime>  (707) 
15.872464418411255

>  <fragmenstein_outcome>  (707) 
too moved

>  <fragmenstein_mode>  (707) 
expansion

>  <fragmenstein_error>  (707) 


$$$$
C1997-P38
     RDKit          3D

 65 68  0  0  0  0  0  0  0  0999 V2000
  -10.1946  -25.6544   32.4948 C   0  0  0  0  0  0  0  0  0  0  0  0
  -11.1043  -24.3208   31.7884 S   0  0  0  0  0  0  0  0  0  0  0  0
  -10.2501  -23.1685   31.9529 O   0  0  0  0  0  0  0  0  0  0  0  0
  -12.3379  -24.4054   32.5286 O   0  0  0  0  0  0  0  0  0  0  0  0
  -11.1825  -24.8156   29.7907 C   0  0  0  0  0  0  0  0  0  0  0  0
  -12.4108  -24.5207   28.2840 C   0  0  0  0  0  0  0  0  0  0  0  0
  -12.0978  -25.2365   26.7793 C   0  0  0  0  0  0  0  0  0  0  0  0
  -10.7309  -26.0941   26.8076 C   0  0  0  0  0  0  0  0  0  0  0  0
  -11.0899  -25.8116   28.1304 N   0  0  0  0  0  0  0  0  0  0  0  0
  -12.5456  -26.4511   29.0307 C   0  0  0  0  0  0  0  0  0  0  0  0
  -13.4407  -25.0779   29.9898 C   0  0  0  0  0  0  0  0  0  0  0  0
  -13.0033  -23.4117   30.1379 N   0  0  0  0  0  0  0  0  0  0  0  0
  -14.0650  -22.7518   30.9184 C   0  0  0  0  0  0  0  0  0  0  0  0
  -13.6865  -21.8824   31.9285 N   0  0  0  0  0  0  0  0  0  0  0  0
  -13.8002  -21.3362   32.9997 C   0  0  0  0  0  0  0  0  0  0  0  0
  -13.0269  -20.3130   33.5974 N   0  0  0  0  0  0  0  0  0  0  0  0
  -11.8928  -19.5056   33.0605 C   0  0  0  0  0  0  0  0  0  0  0  0
  -12.9144  -17.6978   32.9357 C   0  0  0  0  0  0  0  0  0  0  0  0
  -12.5770  -16.7674   31.0678 C   0  0  0  0  0  0  0  0  0  0  0  0
  -12.2780  -17.9040   29.3306 C   0  0  0  0  0  0  0  0  0  0  0  0
  -12.0858  -19.9208   29.4790 N   0  0  0  0  0  0  0  0  0  0  0  0
  -11.5187  -20.5020   31.3098 C   0  0  0  0  0  0  0  0  0  0  0  0
  -15.0165  -21.7320   33.7687 C   0  0  0  0  0  0  0  0  0  0  0  0
  -15.2134  -23.0023   34.2424 C   0  0  0  0  0  0  0  0  0  0  0  0
  -16.4690  -23.3849   34.7243 C   0  0  0  0  0  0  0  0  0  0  0  0
  -17.5154  -22.4643   34.7712 C   0  0  0  0  0  0  0  0  0  0  0  0
  -17.3141  -21.1635   34.3185 C   0  0  0  0  0  0  0  0  0  0  0  0
  -16.0699  -20.8017   33.8021 C   0  0  0  0  0  0  0  0  0  0  0  0
  -11.6993  -22.7349   29.1232 C   0  0  0  0  0  0  0  0  0  0  0  0
  -10.5622  -23.8918   28.0229 C   0  0  0  0  0  0  0  0  0  0  0  0
   -9.5113  -26.2666   28.0334 C   0  0  0  0  0  0  0  0  0  0  0  0
   -9.7329  -25.6479   29.5773 C   0  0  0  0  0  0  0  0  0  0  0  0
  -10.5468  -26.5905   32.0611 H   0  0  0  0  0  0  0  0  0  0  0  0
  -10.3897  -25.6628   33.5711 H   0  0  0  0  0  0  0  0  0  0  0  0
   -9.1238  -25.5090   32.3533 H   0  0  0  0  0  0  0  0  0  0  0  0
  -13.3111  -23.9296   28.2116 H   0  0  0  0  0  0  0  0  0  0  0  0
  -12.7167  -25.0858   25.9093 H   0  0  0  0  0  0  0  0  0  0  0  0
  -12.1516  -27.1901   29.7402 H   0  0  0  0  0  0  0  0  0  0  0  0
  -13.2321  -26.9092   28.3050 H   0  0  0  0  0  0  0  0  0  0  0  0
  -14.4615  -25.0542   29.5903 H   0  0  0  0  0  0  0  0  0  0  0  0
  -13.2541  -25.4225   30.9774 H   0  0  0  0  0  0  0  0  0  0  0  0
  -14.6929  -22.1701   30.2844 H   0  0  0  0  0  0  0  0  0  0  0  0
  -14.6989  -23.4809   31.3744 H   0  0  0  0  0  0  0  0  0  0  0  0
  -13.4632  -20.0406   34.4710 H   0  0  0  0  0  0  0  0  0  0  0  0
  -11.0185  -19.4205   33.6942 H   0  0  0  0  0  0  0  0  0  0  0  0
  -12.6146  -16.9342   33.7270 H   0  0  0  0  0  0  0  0  0  0  0  0
  -13.7434  -17.9326   33.6321 H   0  0  0  0  0  0  0  0  0  0  0  0
  -13.2945  -15.9958   30.8196 H   0  0  0  0  0  0  0  0  0  0  0  0
  -11.7619  -16.0221   31.1400 H   0  0  0  0  0  0  0  0  0  0  0  0
  -12.8875  -17.8253   28.5161 H   0  0  0  0  0  0  0  0  0  0  0  0
  -11.3707  -17.7184   28.8646 H   0  0  0  0  0  0  0  0  0  0  0  0
  -11.3029  -20.1622   28.8407 H   0  0  0  0  0  0  0  0  0  0  0  0
  -10.4382  -20.5488   31.2410 H   0  0  0  0  0  0  0  0  0  0  0  0
  -11.7897  -21.5300   31.3906 H   0  0  0  0  0  0  0  0  0  0  0  0
  -14.3395  -23.6392   34.2634 H   0  0  0  0  0  0  0  0  0  0  0  0
  -16.6232  -24.3997   35.0831 H   0  0  0  0  0  0  0  0  0  0  0  0
  -18.4839  -22.7692   35.1574 H   0  0  0  0  0  0  0  0  0  0  0  0
  -18.1311  -20.4490   34.3359 H   0  0  0  0  0  0  0  0  0  0  0  0
  -15.9332  -19.8122   33.3801 H   0  0  0  0  0  0  0  0  0  0  0  0
  -12.1563  -22.0851   28.3796 H   0  0  0  0  0  0  0  0  0  0  0  0
  -11.0050  -22.1923   29.7405 H   0  0  0  0  0  0  0  0  0  0  0  0
  -10.6726  -23.5378   26.9815 H   0  0  0  0  0  0  0  0  0  0  0  0
   -9.5043  -23.7742   28.2797 H   0  0  0  0  0  0  0  0  0  0  0  0
   -8.6095  -26.8044   27.7840 H   0  0  0  0  0  0  0  0  0  0  0  0
   -9.0030  -25.7368   30.3516 H   0  0  0  0  0  0  0  0  0  0  0  0
  1  2  1  0
  2  3  2  0
  2  4  2  0
  2  5  1  0
  5  6  2  0
  6  7  1  0
  7  8  2  0
  8  9  1  0
  9 10  1  0
 10 11  1  0
 11 12  1  0
 12 13  1  0
 13 14  1  0
 14 15  2  3
 15 16  1  0
 16 17  1  0
 17 18  1  0
 18 19  1  0
 19 20  1  0
 20 21  1  0
 21 22  1  0
 15 23  1  0
 23 24  2  0
 24 25  1  0
 25 26  2  0
 26 27  1  0
 27 28  2  0
 12 29  1  0
 29 30  1  0
  8 31  1  0
 31 32  2  0
 32  5  1  0
 30  9  1  0
 22 17  1  0
 28 23  1  0
  1 33  1  0
  1 34  1  0
  1 35  1  0
  6 36  1  0
  7 37  1  0
 10 38  1  0
 10 39  1  0
 11 40  1  0
 11 41  1  0
 13 42  1  0
 13 43  1  0
 16 44  1  0
 17 45  1  0
 18 46  1  0
 18 47  1  0
 19 48  1  0
 19 49  1  0
 20 50  1  0
 20 51  1  0
 21 52  1  0
 22 53  1  0
 22 54  1  0
 24 55  1  0
 25 56  1  0
 26 57  1  0
 27 58  1  0
 28 59  1  0
 29 60  1  0
 29 61  1  0
 30 62  1  0
 30 63  1  0
 31 64  1  0
 32 65  1  0
M  END
>  <Energy>  (708) 
1801.6001486534876

>  <compound_id>  (708) 
1997

>  <target_id>  (708) 
1

>  <reference_id>  (708) 
38

>  <inspiration_ids>  (708) 
[32, 38]

>  <energy_score>  (708) 
1618.0811319093193

>  <distance_score>  (708) 
1.6680888322812

>  <path>  (708) 
/opt/xchem-fragalysis-2/maxwin/BulkDock/SCRATCH/505732/C1997-P38/C1997-P38.minimised.mol

>  <scratch_subdir>  (708) 
/opt/xchem-fragalysis-2/maxwin/BulkDock/SCRATCH/505732/C1997-P38

>  <fragmenstein_runtime>  (708) 
21.192713260650635

>  <fragmenstein_outcome>  (708) 
too moved

>  <fragmenstein_mode>  (708) 
expansion

>  <fragmenstein_error>  (708) 


$$$$
C1998-P32
     RDKit          3D

 59 62  0  0  0  0  0  0  0  0999 V2000
  -12.9522  -27.1000   31.2190 O   0  0  0  0  0  0  0  0  0  0  0  0
  -13.6403  -27.3519   30.3106 C   0  0  0  0  0  0  0  0  0  0  0  0
  -14.3346  -28.6724   29.9184 N   0  0  0  0  0  0  0  0  0  0  0  0
  -14.4063  -29.9386   30.6132 C   0  0  0  0  0  0  0  0  0  0  0  0
  -14.2210  -31.1003   29.6374 C   0  0  0  0  0  0  0  0  0  0  0  0
  -14.3235  -32.4551   30.3462 C   0  0  0  0  0  0  0  0  0  0  0  0
  -14.2363  -32.3537   31.8706 C   0  0  0  0  0  0  0  0  0  0  0  0
  -13.1818  -31.4315   32.2655 N   0  0  0  0  0  0  0  0  0  0  0  0
  -13.4027  -30.0617   31.7828 C   0  0  0  0  0  0  0  0  0  0  0  0
  -13.9316  -26.2718   29.2310 C   0  0  0  0  0  0  0  0  0  0  0  0
  -15.4195  -25.9973   29.0232 C   0  0  0  0  0  0  0  0  0  0  0  0
  -16.0598  -26.7971   27.8919 C   0  0  0  0  0  0  0  0  0  0  0  0
  -16.2013  -28.0913   28.2980 F   0  0  0  0  0  0  0  0  0  0  0  0
  -15.2331  -26.8193   26.6187 C   0  0  0  0  0  0  0  0  0  0  0  0
  -13.7827  -27.2300   26.8882 C   0  0  0  0  0  0  0  0  0  0  0  0
  -13.0833  -26.3194   27.9242 C   0  0  0  0  0  0  0  0  0  0  0  0
  -12.9686  -24.8993   27.2813 C   0  0  0  0  0  0  0  0  0  0  0  0
  -11.7858  -24.0550   27.7584 C   0  0  0  0  0  0  0  0  0  0  0  0
  -11.4359  -24.4484   29.1086 N   0  0  0  0  0  0  0  0  0  0  0  0
  -10.4880  -23.6037   29.8346 C   0  0  0  0  0  0  0  0  0  0  0  0
  -10.8880  -22.1868   29.8267 C   0  0  0  0  0  0  0  0  0  0  0  0
  -11.3501  -21.3724   30.8845 C   0  0  0  0  0  0  0  0  0  0  0  0
  -11.4765  -20.0985   30.5040 N   0  0  0  0  0  0  0  0  0  0  0  0
  -11.1364  -20.1106   29.2121 N   0  0  0  0  0  0  0  0  0  0  0  0
  -10.7637  -21.3245   28.7640 C   0  0  0  0  0  0  0  0  0  0  0  0
  -10.8823  -25.8080   29.1038 C   0  0  0  0  0  0  0  0  0  0  0  0
  -11.6331  -26.7601   28.1767 C   0  0  0  0  0  0  0  0  0  0  0  0
  -14.7925  -28.5603   29.0204 H   0  0  0  0  0  0  0  0  0  0  0  0
  -15.4257  -29.9847   31.0170 H   0  0  0  0  0  0  0  0  0  0  0  0
  -13.2374  -31.0188   29.1551 H   0  0  0  0  0  0  0  0  0  0  0  0
  -14.9574  -31.0492   28.8259 H   0  0  0  0  0  0  0  0  0  0  0  0
  -15.2720  -32.9369   30.0800 H   0  0  0  0  0  0  0  0  0  0  0  0
  -13.5287  -33.1109   29.9688 H   0  0  0  0  0  0  0  0  0  0  0  0
  -15.1975  -32.0376   32.2939 H   0  0  0  0  0  0  0  0  0  0  0  0
  -14.0248  -33.3467   32.2826 H   0  0  0  0  0  0  0  0  0  0  0  0
  -13.0616  -31.4253   33.2773 H   0  0  0  0  0  0  0  0  0  0  0  0
  -12.4240  -29.6665   31.4871 H   0  0  0  0  0  0  0  0  0  0  0  0
  -13.7536  -29.4381   32.6144 H   0  0  0  0  0  0  0  0  0  0  0  0
  -13.6160  -25.3663   29.7359 H   0  0  0  0  0  0  0  0  0  0  0  0
  -15.9705  -26.1851   29.9525 H   0  0  0  0  0  0  0  0  0  0  0  0
  -15.5460  -24.9383   28.7900 H   0  0  0  0  0  0  0  0  0  0  0  0
  -17.0663  -26.4192   27.6858 H   0  0  0  0  0  0  0  0  0  0  0  0
  -15.2674  -25.8370   26.1348 H   0  0  0  0  0  0  0  0  0  0  0  0
  -15.6717  -27.5371   25.9160 H   0  0  0  0  0  0  0  0  0  0  0  0
  -13.7492  -28.2755   27.2134 H   0  0  0  0  0  0  0  0  0  0  0  0
  -13.2455  -27.1919   25.9337 H   0  0  0  0  0  0  0  0  0  0  0  0
  -13.8960  -24.3439   27.4466 H   0  0  0  0  0  0  0  0  0  0  0  0
  -12.8728  -24.9826   26.1908 H   0  0  0  0  0  0  0  0  0  0  0  0
  -10.9321  -24.1574   27.0754 H   0  0  0  0  0  0  0  0  0  0  0  0
  -12.1365  -23.0253   27.6801 H   0  0  0  0  0  0  0  0  0  0  0  0
   -9.4803  -23.6774   29.4013 H   0  0  0  0  0  0  0  0  0  0  0  0
  -10.4096  -23.9473   30.8743 H   0  0  0  0  0  0  0  0  0  0  0  0
  -11.5628  -21.6456   31.9127 H   0  0  0  0  0  0  0  0  0  0  0  0
  -11.1506  -19.2479   28.6760 H   0  0  0  0  0  0  0  0  0  0  0  0
  -10.4312  -21.4709   27.7504 H   0  0  0  0  0  0  0  0  0  0  0  0
   -9.8307  -25.7983   28.7911 H   0  0  0  0  0  0  0  0  0  0  0  0
  -10.9034  -26.1969   30.1260 H   0  0  0  0  0  0  0  0  0  0  0  0
  -11.0986  -26.7500   27.2220 H   0  0  0  0  0  0  0  0  0  0  0  0
  -11.5810  -27.7841   28.5627 H   0  0  0  0  0  0  0  0  0  0  0  0
  1  2  2  0
  2  3  1  0
  3  4  1  0
  4  5  1  0
  5  6  1  0
  6  7  1  0
  7  8  1  0
  8  9  1  0
  2 10  1  0
 10 11  1  0
 11 12  1  0
 12 13  1  0
 12 14  1  0
 14 15  1  0
 15 16  1  0
 16 17  1  0
 17 18  1  0
 18 19  1  0
 19 20  1  0
 20 21  1  0
 21 22  1  0
 22 23  2  0
 23 24  1  0
 24 25  1  0
 19 26  1  0
 26 27  1  0
  9  4  1  0
 16 10  1  0
 25 21  2  0
 27 16  1  0
  3 28  1  0
  4 29  1  0
  5 30  1  0
  5 31  1  0
  6 32  1  0
  6 33  1  0
  7 34  1  0
  7 35  1  0
  8 36  1  0
  9 37  1  0
  9 38  1  0
 10 39  1  0
 11 40  1  0
 11 41  1  0
 12 42  1  0
 14 43  1  0
 14 44  1  0
 15 45  1  0
 15 46  1  0
 17 47  1  0
 17 48  1  0
 18 49  1  0
 18 50  1  0
 20 51  1  0
 20 52  1  0
 22 53  1  0
 24 54  1  0
 25 55  1  0
 26 56  1  0
 26 57  1  0
 27 58  1  0
 27 59  1  0
M  END
>  <Energy>  (709) 
65.840007318917188

>  <compound_id>  (709) 
1998

>  <target_id>  (709) 
1

>  <reference_id>  (709) 
32

>  <inspiration_ids>  (709) 
[32, 39]

>  <energy_score>  (709) 
-22.90175609499437

>  <distance_score>  (709) 
3.225617133887381

>  <path>  (709) 
/opt/xchem-fragalysis-2/maxwin/BulkDock/SCRATCH/505732/C1998-P32/C1998-P32.minimised.mol

>  <scratch_subdir>  (709) 
/opt/xchem-fragalysis-2/maxwin/BulkDock/SCRATCH/505732/C1998-P32

>  <fragmenstein_runtime>  (709) 
14.35209345817566

>  <fragmenstein_outcome>  (709) 
too moved

>  <fragmenstein_mode>  (709) 
expansion

>  <fragmenstein_error>  (709) 


$$$$
C1998-P39
     RDKit          3D

 59 62  0  0  0  0  0  0  0  0999 V2000
   -9.2156  -25.4174   28.2993 O   0  0  0  0  0  0  0  0  0  0  0  0
  -10.0340  -24.6784   28.7337 C   0  0  0  0  0  0  0  0  0  0  0  0
  -10.4099  -24.4066   30.0422 N   0  0  0  0  0  0  0  0  0  0  0  0
  -10.0221  -24.9708   31.2296 C   0  0  0  0  0  0  0  0  0  0  0  0
   -9.7278  -26.4196   31.1153 C   0  0  0  0  0  0  0  0  0  0  0  0
  -10.7386  -26.9210   32.0667 C   0  0  0  0  0  0  0  0  0  0  0  0
  -10.6732  -26.0118   33.4175 C   0  0  0  0  0  0  0  0  0  0  0  0
   -9.4601  -25.2317   33.5818 N   0  0  0  0  0  0  0  0  0  0  0  0
   -9.3614  -24.3293   32.4305 C   0  0  0  0  0  0  0  0  0  0  0  0
  -10.9832  -23.8972   27.8358 C   0  0  0  0  0  0  0  0  0  0  0  0
  -11.1694  -22.4026   28.1010 C   0  0  0  0  0  0  0  0  0  0  0  0
  -11.9715  -21.9389   29.3105 C   0  0  0  0  0  0  0  0  0  0  0  0
  -11.0916  -21.6044   30.3015 F   0  0  0  0  0  0  0  0  0  0  0  0
  -12.9426  -22.9284   29.9251 C   0  0  0  0  0  0  0  0  0  0  0  0
  -13.2492  -24.1615   29.0828 C   0  0  0  0  0  0  0  0  0  0  0  0
  -12.3362  -24.6698   27.9201 C   0  0  0  0  0  0  0  0  0  0  0  0
  -12.9950  -24.6403   26.5069 C   0  0  0  0  0  0  0  0  0  0  0  0
  -14.2660  -25.5124   26.3383 C   0  0  0  0  0  0  0  0  0  0  0  0
  -14.4385  -26.4667   27.4533 N   0  0  0  0  0  0  0  0  0  0  0  0
  -15.4054  -27.5216   27.1190 C   0  0  0  0  0  0  0  0  0  0  0  0
  -16.7940  -27.0237   27.2324 C   0  0  0  0  0  0  0  0  0  0  0  0
  -17.5661  -26.8382   28.4029 C   0  0  0  0  0  0  0  0  0  0  0  0
  -18.7635  -26.3024   28.1385 N   0  0  0  0  0  0  0  0  0  0  0  0
  -18.8096  -26.2837   26.7910 N   0  0  0  0  0  0  0  0  0  0  0  0
  -17.6392  -26.6606   26.2067 C   0  0  0  0  0  0  0  0  0  0  0  0
  -13.1355  -27.0876   27.6507 C   0  0  0  0  0  0  0  0  0  0  0  0
  -12.0837  -26.1861   28.2088 C   0  0  0  0  0  0  0  0  0  0  0  0
  -11.0673  -23.6777   30.0400 H   0  0  0  0  0  0  0  0  0  0  0  0
  -11.0643  -24.8647   31.5700 H   0  0  0  0  0  0  0  0  0  0  0  0
   -9.8758  -26.8763   30.1379 H   0  0  0  0  0  0  0  0  0  0  0  0
   -8.7323  -26.6528   31.4747 H   0  0  0  0  0  0  0  0  0  0  0  0
  -11.7067  -26.8277   31.5507 H   0  0  0  0  0  0  0  0  0  0  0  0
  -10.5965  -27.9899   32.1713 H   0  0  0  0  0  0  0  0  0  0  0  0
  -11.5031  -25.2876   33.4683 H   0  0  0  0  0  0  0  0  0  0  0  0
  -10.8097  -26.6305   34.2887 H   0  0  0  0  0  0  0  0  0  0  0  0
   -8.6880  -25.8996   33.4960 H   0  0  0  0  0  0  0  0  0  0  0  0
   -8.3097  -24.1609   32.2741 H   0  0  0  0  0  0  0  0  0  0  0  0
   -9.8516  -23.3826   32.6738 H   0  0  0  0  0  0  0  0  0  0  0  0
  -10.5598  -24.0100   26.8294 H   0  0  0  0  0  0  0  0  0  0  0  0
  -10.1898  -21.9350   28.1592 H   0  0  0  0  0  0  0  0  0  0  0  0
  -11.6536  -21.9942   27.2130 H   0  0  0  0  0  0  0  0  0  0  0  0
  -12.4587  -21.0046   29.0691 H   0  0  0  0  0  0  0  0  0  0  0  0
  -13.8587  -22.4599   30.2932 H   0  0  0  0  0  0  0  0  0  0  0  0
  -12.5673  -23.2444   30.9107 H   0  0  0  0  0  0  0  0  0  0  0  0
  -13.2288  -24.9328   29.8497 H   0  0  0  0  0  0  0  0  0  0  0  0
  -14.2820  -24.1310   28.7642 H   0  0  0  0  0  0  0  0  0  0  0  0
  -12.2565  -25.0305   25.7898 H   0  0  0  0  0  0  0  0  0  0  0  0
  -13.1771  -23.6208   26.1691 H   0  0  0  0  0  0  0  0  0  0  0  0
  -15.1625  -24.9014   26.2313 H   0  0  0  0  0  0  0  0  0  0  0  0
  -14.1754  -26.0389   25.3765 H   0  0  0  0  0  0  0  0  0  0  0  0
  -15.2408  -27.9267   26.1190 H   0  0  0  0  0  0  0  0  0  0  0  0
  -15.3111  -28.3651   27.8165 H   0  0  0  0  0  0  0  0  0  0  0  0
  -17.3000  -27.0274   29.4356 H   0  0  0  0  0  0  0  0  0  0  0  0
  -19.6587  -25.9564   26.3405 H   0  0  0  0  0  0  0  0  0  0  0  0
  -17.5122  -26.6351   25.1342 H   0  0  0  0  0  0  0  0  0  0  0  0
  -13.1757  -28.0058   28.2478 H   0  0  0  0  0  0  0  0  0  0  0  0
  -12.7343  -27.2985   26.6771 H   0  0  0  0  0  0  0  0  0  0  0  0
  -11.9776  -26.3965   29.2758 H   0  0  0  0  0  0  0  0  0  0  0  0
  -11.1587  -26.5285   27.7306 H   0  0  0  0  0  0  0  0  0  0  0  0
  1  2  2  0
  2  3  1  0
  3  4  1  0
  4  5  1  0
  5  6  1  0
  6  7  1  0
  7  8  1  0
  8  9  1  0
  2 10  1  0
 10 11  1  0
 11 12  1  0
 12 13  1  0
 12 14  1  0
 14 15  1  0
 15 16  1  0
 16 17  1  0
 17 18  1  0
 18 19  1  0
 19 20  1  0
 20 21  1  0
 21 22  1  0
 22 23  2  0
 23 24  1  0
 24 25  1  0
 19 26  1  0
 26 27  1  0
  9  4  1  0
 16 10  1  0
 25 21  2  0
 27 16  1  0
  3 28  1  0
  4 29  1  0
  5 30  1  0
  5 31  1  0
  6 32  1  0
  6 33  1  0
  7 34  1  0
  7 35  1  0
  8 36  1  0
  9 37  1  0
  9 38  1  0
 10 39  1  0
 11 40  1  0
 11 41  1  0
 12 42  1  0
 14 43  1  0
 14 44  1  0
 15 45  1  0
 15 46  1  0
 17 47  1  0
 17 48  1  0
 18 49  1  0
 18 50  1  0
 20 51  1  0
 20 52  1  0
 22 53  1  0
 24 54  1  0
 25 55  1  0
 26 56  1  0
 26 57  1  0
 27 58  1  0
 27 59  1  0
M  END
>  <Energy>  (710) 
145.55240843593896

>  <compound_id>  (710) 
1998

>  <target_id>  (710) 
1

>  <reference_id>  (710) 
39

>  <inspiration_ids>  (710) 
[32, 39]

>  <energy_score>  (710) 
16.633388561674565

>  <distance_score>  (710) 
6.099726124661568

>  <path>  (710) 
/opt/xchem-fragalysis-2/maxwin/BulkDock/SCRATCH/505732/C1998-P39/C1998-P39.minimised.mol

>  <scratch_subdir>  (710) 
/opt/xchem-fragalysis-2/maxwin/BulkDock/SCRATCH/505732/C1998-P39

>  <fragmenstein_runtime>  (710) 
17.290093660354614

>  <fragmenstein_outcome>  (710) 
too moved

>  <fragmenstein_mode>  (710) 
expansion

>  <fragmenstein_error>  (710) 


$$$$
C1999-P32
     RDKit          3D

 76 81  0  0  0  0  0  0  0  0999 V2000
  -19.4915  -21.7837   21.7150 O   0  0  0  0  0  0  0  0  0  0  0  0
  -18.6549  -22.1306   22.5013 C   0  0  0  0  0  0  0  0  0  0  0  0
  -17.2573  -21.8031   22.5896 N   0  0  0  0  0  0  0  0  0  0  0  0
  -16.3730  -20.8016   21.7546 C   0  0  0  0  0  0  0  0  0  0  0  0
  -14.9877  -20.6790   23.4286 C   0  0  0  0  0  0  0  0  0  0  0  0
  -13.0005  -21.1028   22.9301 C   0  0  0  0  0  0  0  0  0  0  0  0
  -12.1714  -20.3004   21.2030 C   0  0  0  0  0  0  0  0  0  0  0  0
  -13.4639  -19.4987   19.6931 N   0  0  0  0  0  0  0  0  0  0  0  0
  -15.3139  -20.2777   19.9891 C   0  0  0  0  0  0  0  0  0  0  0  0
  -19.1017  -23.0841   23.7206 C   0  0  0  0  0  0  0  0  0  0  0  0
  -18.5039  -24.5216   23.9607 C   0  0  0  0  0  0  0  0  0  0  0  0
  -17.8213  -24.9482   25.3397 C   0  0  0  0  0  0  0  0  0  0  0  0
  -18.6045  -24.2386   26.4586 C   0  0  0  0  0  0  0  0  0  0  0  0
  -18.6804  -22.7273   26.2653 C   0  0  0  0  0  0  0  0  0  0  0  0
  -19.4152  -22.3093   25.0025 C   0  0  0  0  0  0  0  0  0  0  0  0
  -19.2182  -20.9778   24.8177 F   0  0  0  0  0  0  0  0  0  0  0  0
  -17.9245  -26.5095   25.5022 C   0  0  0  0  0  0  0  0  0  0  0  0
  -17.0107  -27.1509   26.5840 C   0  0  0  0  0  0  0  0  0  0  0  0
  -15.5241  -26.7053   26.4988 C   0  0  0  0  0  0  0  0  0  0  0  0
  -14.5400  -27.4502   27.4392 C   0  0  0  0  0  0  0  0  0  0  0  0
  -13.1352  -26.7899   27.7293 C   0  0  0  0  0  0  0  0  0  0  0  0
  -13.0186  -26.0930   29.0410 N   0  0  0  0  0  0  0  0  0  0  0  0
  -11.8100  -25.4353   29.4168 C   0  0  0  0  0  0  0  0  0  0  0  0
  -11.0381  -25.8344   30.4566 C   0  0  0  0  0  0  0  0  0  0  0  0
   -9.8968  -25.0574   30.9085 C   0  0  0  0  0  0  0  0  0  0  0  0
   -9.5635  -23.8997   30.3202 C   0  0  0  0  0  0  0  0  0  0  0  0
  -10.3396  -23.4308   29.2349 C   0  0  0  0  0  0  0  0  0  0  0  0
  -10.2699  -22.3331   28.5139 N   0  0  0  0  0  0  0  0  0  0  0  0
  -11.2831  -22.3759   27.5915 N   0  0  0  0  0  0  0  0  0  0  0  0
  -11.9398  -23.4979   27.7718 C   0  0  0  0  0  0  0  0  0  0  0  0
  -11.4104  -24.2150   28.8070 N   0  0  0  0  0  0  0  0  0  0  0  0
  -13.8681  -26.7324   30.0946 C   0  0  0  0  0  0  0  0  0  0  0  0
  -14.4215  -28.0884   29.6980 C   0  0  0  0  0  0  0  0  0  0  0  0
  -15.2655  -27.8988   28.5820 O   0  0  0  0  0  0  0  0  0  0  0  0
  -15.5188  -25.1819   26.6003 C   0  0  0  0  0  0  0  0  0  0  0  0
  -16.3008  -24.6740   25.3916 C   0  0  0  0  0  0  0  0  0  0  0  0
  -16.0082  -23.3378   25.0577 O   0  0  0  0  0  0  0  0  0  0  0  0
  -16.8753  -22.2136   23.4369 H   0  0  0  0  0  0  0  0  0  0  0  0
  -17.2659  -20.1516   21.6645 H   0  0  0  0  0  0  0  0  0  0  0  0
  -15.1268  -19.8074   24.1055 H   0  0  0  0  0  0  0  0  0  0  0  0
  -15.2011  -21.4805   24.1576 H   0  0  0  0  0  0  0  0  0  0  0  0
  -12.3743  -20.7366   23.7603 H   0  0  0  0  0  0  0  0  0  0  0  0
  -12.9000  -22.1959   22.8678 H   0  0  0  0  0  0  0  0  0  0  0  0
  -11.5960  -21.1588   20.7246 H   0  0  0  0  0  0  0  0  0  0  0  0
  -11.2956  -19.8386   21.5786 H   0  0  0  0  0  0  0  0  0  0  0  0
  -13.1187  -20.1507   18.9747 H   0  0  0  0  0  0  0  0  0  0  0  0
  -16.0963  -19.8864   19.2932 H   0  0  0  0  0  0  0  0  0  0  0  0
  -14.8613  -21.0187   19.4236 H   0  0  0  0  0  0  0  0  0  0  0  0
  -20.1082  -23.3478   23.3440 H   0  0  0  0  0  0  0  0  0  0  0  0
  -19.3825  -25.1845   23.8866 H   0  0  0  0  0  0  0  0  0  0  0  0
  -17.9015  -24.8448   23.1150 H   0  0  0  0  0  0  0  0  0  0  0  0
  -19.6292  -24.6326   26.4936 H   0  0  0  0  0  0  0  0  0  0  0  0
  -18.1710  -24.4643   27.4368 H   0  0  0  0  0  0  0  0  0  0  0  0
  -17.6927  -22.2693   26.2743 H   0  0  0  0  0  0  0  0  0  0  0  0
  -19.1972  -22.2840   27.1262 H   0  0  0  0  0  0  0  0  0  0  0  0
  -20.4878  -22.4248   25.2062 H   0  0  0  0  0  0  0  0  0  0  0  0
  -18.9639  -26.7994   25.7004 H   0  0  0  0  0  0  0  0  0  0  0  0
  -17.6585  -26.9740   24.5421 H   0  0  0  0  0  0  0  0  0  0  0  0
  -17.0704  -28.2415   26.4846 H   0  0  0  0  0  0  0  0  0  0  0  0
  -17.4163  -26.8978   27.5716 H   0  0  0  0  0  0  0  0  0  0  0  0
  -15.1635  -26.9676   25.4934 H   0  0  0  0  0  0  0  0  0  0  0  0
  -14.2997  -28.3777   26.8987 H   0  0  0  0  0  0  0  0  0  0  0  0
  -12.4052  -27.6060   27.7736 H   0  0  0  0  0  0  0  0  0  0  0  0
  -12.8208  -26.1563   26.8949 H   0  0  0  0  0  0  0  0  0  0  0  0
  -11.2548  -26.7217   31.0360 H   0  0  0  0  0  0  0  0  0  0  0  0
   -9.3217  -25.4214   31.7580 H   0  0  0  0  0  0  0  0  0  0  0  0
   -8.7224  -23.3153   30.6728 H   0  0  0  0  0  0  0  0  0  0  0  0
  -12.7880  -23.8213   27.2007 H   0  0  0  0  0  0  0  0  0  0  0  0
  -14.7020  -26.0492   30.2923 H   0  0  0  0  0  0  0  0  0  0  0  0
  -13.3275  -26.9040   31.0247 H   0  0  0  0  0  0  0  0  0  0  0  0
  -15.0294  -28.4954   30.5124 H   0  0  0  0  0  0  0  0  0  0  0  0
  -13.6363  -28.8193   29.4718 H   0  0  0  0  0  0  0  0  0  0  0  0
  -15.9319  -24.8308   27.5481 H   0  0  0  0  0  0  0  0  0  0  0  0
  -14.5022  -24.7973   26.5364 H   0  0  0  0  0  0  0  0  0  0  0  0
  -15.8766  -25.2814   24.5902 H   0  0  0  0  0  0  0  0  0  0  0  0
  -15.2398  -23.0323   25.5781 H   0  0  0  0  0  0  0  0  0  0  0  0
  1  2  2  0
  2  3  1  0
  3  4  1  0
  4  5  1  0
  5  6  1  0
  6  7  1  0
  7  8  1  0
  8  9  1  0
  2 10  1  0
 10 11  1  0
 11 12  1  0
 12 13  1  0
 13 14  1  0
 14 15  1  0
 15 16  1  0
 12 17  1  0
 17 18  1  0
 18 19  1  0
 19 20  1  0
 20 21  1  0
 21 22  1  0
 22 23  1  0
 23 24  2  0
 24 25  1  0
 25 26  2  0
 26 27  1  0
 27 28  2  0
 28 29  1  0
 29 30  2  0
 30 31  1  0
 22 32  1  0
 32 33  1  0
 33 34  1  0
 19 35  1  0
 35 36  1  0
 36 37  1  0
  9  4  1  0
 15 10  1  0
 34 20  1  0
 36 12  1  0
 31 23  1  0
 31 27  1  0
  3 38  1  0
  4 39  1  0
  5 40  1  0
  5 41  1  0
  6 42  1  0
  6 43  1  0
  7 44  1  0
  7 45  1  0
  8 46  1  0
  9 47  1  0
  9 48  1  0
 10 49  1  0
 11 50  1  0
 11 51  1  0
 13 52  1  0
 13 53  1  0
 14 54  1  0
 14 55  1  0
 15 56  1  0
 17 57  1  0
 17 58  1  0
 18 59  1  0
 18 60  1  0
 19 61  1  0
 20 62  1  0
 21 63  1  0
 21 64  1  0
 24 65  1  0
 25 66  1  0
 26 67  1  0
 30 68  1  0
 32 69  1  0
 32 70  1  0
 33 71  1  0
 33 72  1  0
 35 73  1  0
 35 74  1  0
 36 75  1  0
 37 76  1  0
M  END
>  <Energy>  (711) 
816.14048563598897

>  <compound_id>  (711) 
1999

>  <target_id>  (711) 
1

>  <reference_id>  (711) 
32

>  <inspiration_ids>  (711) 
[32, 42]

>  <energy_score>  (711) 
547.0625257084972

>  <distance_score>  (711) 
4.6536839205691205

>  <path>  (711) 
/opt/xchem-fragalysis-2/maxwin/BulkDock/SCRATCH/505732/C1999-P32/C1999-P32.minimised.mol

>  <scratch_subdir>  (711) 
/opt/xchem-fragalysis-2/maxwin/BulkDock/SCRATCH/505732/C1999-P32

>  <fragmenstein_runtime>  (711) 
24.489691257476807

>  <fragmenstein_outcome>  (711) 
too moved

>  <fragmenstein_mode>  (711) 
expansion

>  <fragmenstein_error>  (711) 


$$$$
C1999-P42
     RDKit          3D

 76 81  0  0  0  0  0  0  0  0999 V2000
  -18.9705  -21.2467   23.9719 O   0  0  0  0  0  0  0  0  0  0  0  0
  -18.0142  -21.9627   23.8405 C   0  0  0  0  0  0  0  0  0  0  0  0
  -16.8340  -21.8547   22.9129 N   0  0  0  0  0  0  0  0  0  0  0  0
  -16.3449  -20.5503   21.7446 C   0  0  0  0  0  0  0  0  0  0  0  0
  -14.8999  -20.8911   23.2935 C   0  0  0  0  0  0  0  0  0  0  0  0
  -12.9408  -21.2976   22.7323 C   0  0  0  0  0  0  0  0  0  0  0  0
  -12.0543  -20.3244   21.1480 C   0  0  0  0  0  0  0  0  0  0  0  0
  -13.2999  -19.2265   19.8017 N   0  0  0  0  0  0  0  0  0  0  0  0
  -15.2148  -19.8683   20.0444 C   0  0  0  0  0  0  0  0  0  0  0  0
  -17.7263  -23.4157   24.9628 C   0  0  0  0  0  0  0  0  0  0  0  0
  -17.3431  -24.3406   26.4403 C   0  0  0  0  0  0  0  0  0  0  0  0
  -15.7681  -25.1627   26.5002 C   0  0  0  0  0  0  0  0  0  0  0  0
  -15.0621  -24.0908   25.7244 C   0  0  0  0  0  0  0  0  0  0  0  0
  -15.4908  -24.3181   24.2860 C   0  0  0  0  0  0  0  0  0  0  0  0
  -17.1211  -24.4631   24.1022 C   0  0  0  0  0  0  0  0  0  0  0  0
  -17.5853  -25.6917   24.4583 F   0  0  0  0  0  0  0  0  0  0  0  0
  -15.4249  -26.4218   25.6408 C   0  0  0  0  0  0  0  0  0  0  0  0
  -13.8179  -26.3861   25.5245 C   0  0  0  0  0  0  0  0  0  0  0  0
  -13.1347  -26.8760   26.8236 C   0  0  0  0  0  0  0  0  0  0  0  0
  -11.9234  -25.9761   27.0742 C   0  0  0  0  0  0  0  0  0  0  0  0
  -11.1341  -26.2918   28.3476 C   0  0  0  0  0  0  0  0  0  0  0  0
  -10.5493  -25.0578   28.8871 N   0  0  0  0  0  0  0  0  0  0  0  0
  -10.6340  -24.8276   30.2564 C   0  0  0  0  0  0  0  0  0  0  0  0
  -10.2467  -25.7695   31.1474 C   0  0  0  0  0  0  0  0  0  0  0  0
  -10.4772  -25.5627   32.5558 C   0  0  0  0  0  0  0  0  0  0  0  0
  -11.0204  -24.4270   33.0053 C   0  0  0  0  0  0  0  0  0  0  0  0
  -11.1710  -23.3281   32.1378 C   0  0  0  0  0  0  0  0  0  0  0  0
  -11.4049  -22.0481   32.3195 N   0  0  0  0  0  0  0  0  0  0  0  0
  -11.5447  -21.4767   31.0894 N   0  0  0  0  0  0  0  0  0  0  0  0
  -11.5348  -22.4394   30.2043 C   0  0  0  0  0  0  0  0  0  0  0  0
  -11.1149  -23.6067   30.7855 N   0  0  0  0  0  0  0  0  0  0  0  0
  -10.1871  -24.0742   27.8708 C   0  0  0  0  0  0  0  0  0  0  0  0
  -11.3175  -23.7036   26.9344 C   0  0  0  0  0  0  0  0  0  0  0  0
  -12.3768  -24.6190   27.0519 O   0  0  0  0  0  0  0  0  0  0  0  0
  -14.2854  -27.0486   27.8345 C   0  0  0  0  0  0  0  0  0  0  0  0
  -15.1521  -25.7565   27.9083 C   0  0  0  0  0  0  0  0  0  0  0  0
  -14.1321  -25.0258   28.5874 O   0  0  0  0  0  0  0  0  0  0  0  0
  -16.2034  -22.5537   23.1223 H   0  0  0  0  0  0  0  0  0  0  0  0
  -17.2695  -19.9621   21.8959 H   0  0  0  0  0  0  0  0  0  0  0  0
  -15.0480  -21.6892   24.0300 H   0  0  0  0  0  0  0  0  0  0  0  0
  -15.0227  -20.0887   24.0054 H   0  0  0  0  0  0  0  0  0  0  0  0
  -12.3159  -21.0815   23.6143 H   0  0  0  0  0  0  0  0  0  0  0  0
  -12.8950  -22.3691   22.5134 H   0  0  0  0  0  0  0  0  0  0  0  0
  -11.1642  -19.9787   21.5974 H   0  0  0  0  0  0  0  0  0  0  0  0
  -11.5469  -21.1373   20.5439 H   0  0  0  0  0  0  0  0  0  0  0  0
  -13.0062  -19.8146   19.0064 H   0  0  0  0  0  0  0  0  0  0  0  0
  -14.8107  -20.5002   19.3467 H   0  0  0  0  0  0  0  0  0  0  0  0
  -15.9273  -19.3166   19.3589 H   0  0  0  0  0  0  0  0  0  0  0  0
  -17.0327  -22.6641   25.3699 H   0  0  0  0  0  0  0  0  0  0  0  0
  -17.4271  -23.6665   27.2939 H   0  0  0  0  0  0  0  0  0  0  0  0
  -18.1170  -25.1082   26.5684 H   0  0  0  0  0  0  0  0  0  0  0  0
  -15.4015  -23.1292   25.9851 H   0  0  0  0  0  0  0  0  0  0  0  0
  -14.0045  -23.9110   25.8407 H   0  0  0  0  0  0  0  0  0  0  0  0
  -14.9981  -25.1496   23.7751 H   0  0  0  0  0  0  0  0  0  0  0  0
  -14.9685  -23.5042   23.8001 H   0  0  0  0  0  0  0  0  0  0  0  0
  -17.5850  -24.3770   23.1198 H   0  0  0  0  0  0  0  0  0  0  0  0
  -15.8171  -26.5514   24.6346 H   0  0  0  0  0  0  0  0  0  0  0  0
  -15.8720  -27.3144   26.0901 H   0  0  0  0  0  0  0  0  0  0  0  0
  -13.3931  -25.4335   25.2454 H   0  0  0  0  0  0  0  0  0  0  0  0
  -13.4599  -26.8223   24.5898 H   0  0  0  0  0  0  0  0  0  0  0  0
  -12.6587  -27.8587   26.7845 H   0  0  0  0  0  0  0  0  0  0  0  0
  -11.2464  -26.1095   26.2166 H   0  0  0  0  0  0  0  0  0  0  0  0
  -11.7777  -26.7707   29.0907 H   0  0  0  0  0  0  0  0  0  0  0  0
  -10.3369  -27.0059   28.1220 H   0  0  0  0  0  0  0  0  0  0  0  0
   -9.8501  -26.7305   30.8392 H   0  0  0  0  0  0  0  0  0  0  0  0
  -10.3734  -26.3846   33.2396 H   0  0  0  0  0  0  0  0  0  0  0  0
  -11.4485  -24.3817   33.9977 H   0  0  0  0  0  0  0  0  0  0  0  0
  -11.7529  -22.3150   29.1640 H   0  0  0  0  0  0  0  0  0  0  0  0
   -9.6874  -23.1943   28.2579 H   0  0  0  0  0  0  0  0  0  0  0  0
   -9.4691  -24.5596   27.2297 H   0  0  0  0  0  0  0  0  0  0  0  0
  -10.9875  -23.7299   25.8912 H   0  0  0  0  0  0  0  0  0  0  0  0
  -11.7060  -22.6995   27.1196 H   0  0  0  0  0  0  0  0  0  0  0  0
  -13.8434  -27.3515   28.7834 H   0  0  0  0  0  0  0  0  0  0  0  0
  -14.9128  -27.9183   27.6145 H   0  0  0  0  0  0  0  0  0  0  0  0
  -15.9864  -25.9433   28.5945 H   0  0  0  0  0  0  0  0  0  0  0  0
  -13.6523  -24.5007   27.9132 H   0  0  0  0  0  0  0  0  0  0  0  0
  1  2  2  0
  2  3  1  0
  3  4  1  0
  4  5  1  0
  5  6  1  0
  6  7  1  0
  7  8  1  0
  8  9  1  0
  2 10  1  0
 10 11  1  0
 11 12  1  0
 12 13  1  0
 13 14  1  0
 14 15  1  0
 15 16  1  0
 12 17  1  0
 17 18  1  0
 18 19  1  0
 19 20  1  0
 20 21  1  0
 21 22  1  0
 22 23  1  0
 23 24  2  0
 24 25  1  0
 25 26  2  0
 26 27  1  0
 27 28  2  0
 28 29  1  0
 29 30  2  0
 30 31  1  0
 22 32  1  0
 32 33  1  0
 33 34  1  0
 19 35  1  0
 35 36  1  0
 36 37  1  0
  9  4  1  0
 15 10  1  0
 34 20  1  0
 36 12  1  0
 31 23  1  0
 31 27  1  0
  3 38  1  0
  4 39  1  0
  5 40  1  0
  5 41  1  0
  6 42  1  0
  6 43  1  0
  7 44  1  0
  7 45  1  0
  8 46  1  0
  9 47  1  0
  9 48  1  0
 10 49  1  0
 11 50  1  0
 11 51  1  0
 13 52  1  0
 13 53  1  0
 14 54  1  0
 14 55  1  0
 15 56  1  0
 17 57  1  0
 17 58  1  0
 18 59  1  0
 18 60  1  0
 19 61  1  0
 20 62  1  0
 21 63  1  0
 21 64  1  0
 24 65  1  0
 25 66  1  0
 26 67  1  0
 30 68  1  0
 32 69  1  0
 32 70  1  0
 33 71  1  0
 33 72  1  0
 35 73  1  0
 35 74  1  0
 36 75  1  0
 37 76  1  0
M  END
>  <Energy>  (712) 
1125.1322204809674

>  <compound_id>  (712) 
1999

>  <target_id>  (712) 
1

>  <reference_id>  (712) 
42

>  <inspiration_ids>  (712) 
[32, 42]

>  <energy_score>  (712) 
856.0542605534788

>  <distance_score>  (712) 
3.161889680624679

>  <path>  (712) 
/opt/xchem-fragalysis-2/maxwin/BulkDock/SCRATCH/505732/C1999-P42/C1999-P42.minimised.mol

>  <scratch_subdir>  (712) 
/opt/xchem-fragalysis-2/maxwin/BulkDock/SCRATCH/505732/C1999-P42

>  <fragmenstein_runtime>  (712) 
36.89954352378845

>  <fragmenstein_outcome>  (712) 
too moved

>  <fragmenstein_mode>  (712) 
expansion

>  <fragmenstein_error>  (712) 


$$$$
C2000-P32
     RDKit          3D

 80 85  0  0  0  0  0  0  0  0999 V2000
   -8.9828  -29.4455   27.4692 O   0  0  0  0  0  0  0  0  0  0  0  0
   -8.9730  -28.7002   26.5315 C   0  0  0  0  0  0  0  0  0  0  0  0
   -8.3739  -28.8800   25.2028 N   0  0  0  0  0  0  0  0  0  0  0  0
   -7.5078  -29.9970   24.6406 C   0  0  0  0  0  0  0  0  0  0  0  0
   -6.2014  -29.4923   24.0345 C   0  0  0  0  0  0  0  0  0  0  0  0
   -5.2247  -30.6081   23.6496 C   0  0  0  0  0  0  0  0  0  0  0  0
   -5.8403  -32.0051   23.6334 C   0  0  0  0  0  0  0  0  0  0  0  0
   -7.1509  -31.9665   22.9793 N   0  0  0  0  0  0  0  0  0  0  0  0
   -8.0992  -31.1767   23.7978 C   0  0  0  0  0  0  0  0  0  0  0  0
   -9.8295  -26.9580   27.0353 C   0  0  0  0  0  0  0  0  0  0  0  0
   -9.8045  -25.5821   26.3726 C   0  0  0  0  0  0  0  0  0  0  0  0
   -9.7249  -24.1927   27.0980 C   0  0  0  0  0  0  0  0  0  0  0  0
   -8.7204  -23.9428   28.1840 C   0  0  0  0  0  0  0  0  0  0  0  0
   -8.5293  -22.2644   28.3519 O   0  0  0  0  0  0  0  0  0  0  0  0
   -7.2831  -21.2368   27.6330 C   0  0  0  0  0  0  0  0  0  0  0  0
   -7.2419  -19.9016   27.3434 O   0  0  0  0  0  0  0  0  0  0  0  0
   -9.0456  -25.3520   29.1700 C   0  0  0  0  0  0  0  0  0  0  0  0
  -10.2251  -26.6830   28.6005 C   0  0  0  0  0  0  0  0  0  0  0  0
  -11.2285  -26.0613   29.5447 C   0  0  0  0  0  0  0  0  0  0  0  0
  -12.6461  -26.4887   29.7491 C   0  0  0  0  0  0  0  0  0  0  0  0
  -13.0633  -26.6814   28.3456 C   0  0  0  0  0  0  0  0  0  0  0  0
  -14.2707  -25.8505   28.0117 C   0  0  0  0  0  0  0  0  0  0  0  0
  -14.1930  -24.4778   28.7838 C   0  0  0  0  0  0  0  0  0  0  0  0
  -12.9152  -23.6589   28.5076 N   0  0  0  0  0  0  0  0  0  0  0  0
  -11.9771  -22.9550   29.5117 C   0  0  0  0  0  0  0  0  0  0  0  0
  -11.3399  -23.4592   30.6189 C   0  0  0  0  0  0  0  0  0  0  0  0
  -10.7141  -22.7376   31.7153 C   0  0  0  0  0  0  0  0  0  0  0  0
  -10.8141  -21.4162   31.7471 C   0  0  0  0  0  0  0  0  0  0  0  0
  -11.2261  -20.8200   30.5513 C   0  0  0  0  0  0  0  0  0  0  0  0
  -11.1568  -19.5749   30.2027 N   0  0  0  0  0  0  0  0  0  0  0  0
  -11.4485  -19.5464   28.8969 N   0  0  0  0  0  0  0  0  0  0  0  0
  -11.4844  -20.7630   28.4213 C   0  0  0  0  0  0  0  0  0  0  0  0
  -11.6434  -21.6002   29.4566 N   0  0  0  0  0  0  0  0  0  0  0  0
  -12.8135  -23.5990   26.9866 C   0  0  0  0  0  0  0  0  0  0  0  0
  -14.0022  -24.2487   26.2096 C   0  0  0  0  0  0  0  0  0  0  0  0
  -14.2675  -25.6202   26.5769 O   0  0  0  0  0  0  0  0  0  0  0  0
  -12.6897  -28.1314   28.2288 C   0  0  0  0  0  0  0  0  0  0  0  0
  -11.1398  -28.1850   28.8450 C   0  0  0  0  0  0  0  0  0  0  0  0
   -8.6200  -28.1155   24.6348 H   0  0  0  0  0  0  0  0  0  0  0  0
   -7.2688  -30.5486   25.5470 H   0  0  0  0  0  0  0  0  0  0  0  0
   -5.6923  -28.8104   24.7199 H   0  0  0  0  0  0  0  0  0  0  0  0
   -6.4235  -28.9023   23.1437 H   0  0  0  0  0  0  0  0  0  0  0  0
   -4.8049  -30.3819   22.6615 H   0  0  0  0  0  0  0  0  0  0  0  0
   -4.3782  -30.5961   24.3372 H   0  0  0  0  0  0  0  0  0  0  0  0
   -5.1821  -32.6819   23.0775 H   0  0  0  0  0  0  0  0  0  0  0  0
   -5.9349  -32.4232   24.6366 H   0  0  0  0  0  0  0  0  0  0  0  0
   -6.9757  -31.3870   22.1428 H   0  0  0  0  0  0  0  0  0  0  0  0
   -8.5902  -31.8846   24.4791 H   0  0  0  0  0  0  0  0  0  0  0  0
   -8.8722  -30.8419   23.1160 H   0  0  0  0  0  0  0  0  0  0  0  0
  -10.8782  -27.0961   26.8245 H   0  0  0  0  0  0  0  0  0  0  0  0
  -10.7040  -25.5125   25.7472 H   0  0  0  0  0  0  0  0  0  0  0  0
   -9.0416  -25.6299   25.6632 H   0  0  0  0  0  0  0  0  0  0  0  0
  -10.6195  -24.0415   27.6555 H   0  0  0  0  0  0  0  0  0  0  0  0
   -9.7655  -23.3816   26.3628 H   0  0  0  0  0  0  0  0  0  0  0  0
   -7.7017  -24.2263   28.1667 H   0  0  0  0  0  0  0  0  0  0  0  0
   -7.1160  -21.5055   26.5943 H   0  0  0  0  0  0  0  0  0  0  0  0
   -6.2374  -21.4271   27.9695 H   0  0  0  0  0  0  0  0  0  0  0  0
   -6.4882  -19.7407   27.9118 H   0  0  0  0  0  0  0  0  0  0  0  0
   -9.2088  -25.0184   30.1990 H   0  0  0  0  0  0  0  0  0  0  0  0
   -8.0682  -25.8205   29.1894 H   0  0  0  0  0  0  0  0  0  0  0  0
  -10.8009  -26.1463   30.5519 H   0  0  0  0  0  0  0  0  0  0  0  0
  -11.2776  -25.0843   29.1437 H   0  0  0  0  0  0  0  0  0  0  0  0
  -13.2261  -25.7808   30.2722 H   0  0  0  0  0  0  0  0  0  0  0  0
  -12.7845  -27.3458   30.4232 H   0  0  0  0  0  0  0  0  0  0  0  0
  -12.3756  -26.2181   27.6382 H   0  0  0  0  0  0  0  0  0  0  0  0
  -15.1979  -26.3755   28.2627 H   0  0  0  0  0  0  0  0  0  0  0  0
  -14.5206  -24.5412   29.8148 H   0  0  0  0  0  0  0  0  0  0  0  0
  -15.0270  -23.9619   28.3428 H   0  0  0  0  0  0  0  0  0  0  0  0
  -11.3697  -24.4612   30.9726 H   0  0  0  0  0  0  0  0  0  0  0  0
  -10.3328  -23.2895   32.5699 H   0  0  0  0  0  0  0  0  0  0  0  0
  -10.4702  -20.8150   32.5790 H   0  0  0  0  0  0  0  0  0  0  0  0
  -11.4480  -21.0458   27.3845 H   0  0  0  0  0  0  0  0  0  0  0  0
  -12.6195  -22.5948   26.6263 H   0  0  0  0  0  0  0  0  0  0  0  0
  -12.0224  -24.2367   26.6471 H   0  0  0  0  0  0  0  0  0  0  0  0
  -13.7640  -24.2556   25.1431 H   0  0  0  0  0  0  0  0  0  0  0  0
  -14.9359  -23.6848   26.2863 H   0  0  0  0  0  0  0  0  0  0  0  0
  -13.3252  -28.7879   28.8378 H   0  0  0  0  0  0  0  0  0  0  0  0
  -12.8289  -28.4623   27.2096 H   0  0  0  0  0  0  0  0  0  0  0  0
  -11.2884  -28.4198   29.9046 H   0  0  0  0  0  0  0  0  0  0  0  0
  -10.6757  -29.1014   28.5249 H   0  0  0  0  0  0  0  0  0  0  0  0
  1  2  2  0
  2  3  1  0
  3  4  1  0
  4  5  1  0
  5  6  1  0
  6  7  1  0
  7  8  1  0
  8  9  1  0
  2 10  1  0
 10 11  1  0
 11 12  1  0
 12 13  1  0
 13 14  1  0
 14 15  1  0
 15 16  1  0
 13 17  1  0
 17 18  1  0
 18 19  1  0
 19 20  1  0
 20 21  1  0
 21 22  1  0
 22 23  1  0
 23 24  1  0
 24 25  1  0
 25 26  2  0
 26 27  1  0
 27 28  2  0
 28 29  1  0
 29 30  2  0
 30 31  1  0
 31 32  2  0
 32 33  1  0
 24 34  1  0
 34 35  1  0
 35 36  1  0
 21 37  1  0
 37 38  1  0
  9  4  1  0
 18 10  1  0
 36 22  1  0
 38 18  1  0
 33 25  1  0
 33 29  1  0
  3 39  1  0
  4 40  1  0
  5 41  1  0
  5 42  1  0
  6 43  1  0
  6 44  1  0
  7 45  1  0
  7 46  1  0
  8 47  1  0
  9 48  1  0
  9 49  1  0
 10 50  1  0
 11 51  1  0
 11 52  1  0
 12 53  1  0
 12 54  1  0
 13 55  1  0
 15 56  1  0
 15 57  1  0
 16 58  1  0
 17 59  1  0
 17 60  1  0
 19 61  1  0
 19 62  1  0
 20 63  1  0
 20 64  1  0
 21 65  1  0
 22 66  1  0
 23 67  1  0
 23 68  1  0
 26 69  1  0
 27 70  1  0
 28 71  1  0
 32 72  1  0
 34 73  1  0
 34 74  1  0
 35 75  1  0
 35 76  1  0
 37 77  1  0
 37 78  1  0
 38 79  1  0
 38 80  1  0
M  END
>  <Energy>  (713) 
705.38343511046617

>  <compound_id>  (713) 
2000

>  <target_id>  (713) 
1

>  <reference_id>  (713) 
32

>  <inspiration_ids>  (713) 
[32, 45]

>  <energy_score>  (713) 
462.64727363919974

>  <distance_score>  (713) 
3.1934238196147087

>  <path>  (713) 
/opt/xchem-fragalysis-2/maxwin/BulkDock/SCRATCH/505732/C2000-P32/C2000-P32.minimised.mol

>  <scratch_subdir>  (713) 
/opt/xchem-fragalysis-2/maxwin/BulkDock/SCRATCH/505732/C2000-P32

>  <fragmenstein_runtime>  (713) 
56.95247149467468

>  <fragmenstein_outcome>  (713) 
too moved

>  <fragmenstein_mode>  (713) 
expansion

>  <fragmenstein_error>  (713) 


$$$$
C2000-P45
     RDKit          3D

 80 85  0  0  0  0  0  0  0  0999 V2000
  -12.5392  -30.8027   26.6577 O   0  0  0  0  0  0  0  0  0  0  0  0
  -11.9256  -30.2323   27.5091 C   0  0  0  0  0  0  0  0  0  0  0  0
  -12.3363  -29.7569   28.7977 N   0  0  0  0  0  0  0  0  0  0  0  0
  -13.6370  -29.7327   29.4303 C   0  0  0  0  0  0  0  0  0  0  0  0
  -14.1997  -31.1385   29.6666 C   0  0  0  0  0  0  0  0  0  0  0  0
  -15.7285  -31.1409   29.7584 C   0  0  0  0  0  0  0  0  0  0  0  0
  -16.2758  -29.7958   30.2311 C   0  0  0  0  0  0  0  0  0  0  0  0
  -15.9294  -28.6914   29.3330 N   0  0  0  0  0  0  0  0  0  0  0  0
  -14.6427  -28.8646   28.6520 C   0  0  0  0  0  0  0  0  0  0  0  0
  -10.4193  -29.8521   27.2322 C   0  0  0  0  0  0  0  0  0  0  0  0
   -9.5945  -30.8146   26.3297 C   0  0  0  0  0  0  0  0  0  0  0  0
   -8.5510  -30.1150   25.4402 C   0  0  0  0  0  0  0  0  0  0  0  0
   -7.6844  -29.2578   26.3479 C   0  0  0  0  0  0  0  0  0  0  0  0
   -6.5091  -28.7390   25.7432 O   0  0  0  0  0  0  0  0  0  0  0  0
   -5.6385  -27.9813   26.5802 C   0  0  0  0  0  0  0  0  0  0  0  0
   -6.0937  -26.6684   26.8584 O   0  0  0  0  0  0  0  0  0  0  0  0
   -8.5276  -28.1399   26.8880 C   0  0  0  0  0  0  0  0  0  0  0  0
  -10.0562  -28.3357   27.0720 C   0  0  0  0  0  0  0  0  0  0  0  0
  -10.4175  -27.4671   28.2802 C   0  0  0  0  0  0  0  0  0  0  0  0
   -9.7752  -26.1053   28.1428 C   0  0  0  0  0  0  0  0  0  0  0  0
  -10.2098  -25.3500   26.9017 C   0  0  0  0  0  0  0  0  0  0  0  0
  -11.0734  -24.1716   27.3344 C   0  0  0  0  0  0  0  0  0  0  0  0
  -10.3994  -23.3132   28.4789 C   0  0  0  0  0  0  0  0  0  0  0  0
  -11.0930  -23.3325   29.7976 N   0  0  0  0  0  0  0  0  0  0  0  0
  -10.7127  -23.7335   31.0941 C   0  0  0  0  0  0  0  0  0  0  0  0
   -9.9050  -24.7478   31.4929 C   0  0  0  0  0  0  0  0  0  0  0  0
   -9.9335  -25.1765   32.8831 C   0  0  0  0  0  0  0  0  0  0  0  0
  -10.7532  -24.5916   33.7739 C   0  0  0  0  0  0  0  0  0  0  0  0
  -11.3507  -23.3472   33.4518 C   0  0  0  0  0  0  0  0  0  0  0  0
  -12.0152  -22.4268   34.1220 N   0  0  0  0  0  0  0  0  0  0  0  0
  -12.3091  -21.3883   33.2663 N   0  0  0  0  0  0  0  0  0  0  0  0
  -11.8433  -21.7283   32.0953 C   0  0  0  0  0  0  0  0  0  0  0  0
  -11.2725  -22.9663   32.1396 N   0  0  0  0  0  0  0  0  0  0  0  0
  -12.4955  -23.5015   29.5191 C   0  0  0  0  0  0  0  0  0  0  0  0
  -12.6083  -24.9186   28.9694 C   0  0  0  0  0  0  0  0  0  0  0  0
  -12.3662  -24.7518   27.5916 O   0  0  0  0  0  0  0  0  0  0  0  0
  -10.9880  -26.1824   25.8702 C   0  0  0  0  0  0  0  0  0  0  0  0
  -10.8657  -27.7023   25.9200 C   0  0  0  0  0  0  0  0  0  0  0  0
  -11.5330  -29.3950   29.2854 H   0  0  0  0  0  0  0  0  0  0  0  0
  -13.4658  -29.2600   30.4049 H   0  0  0  0  0  0  0  0  0  0  0  0
  -13.7712  -31.5366   30.5953 H   0  0  0  0  0  0  0  0  0  0  0  0
  -13.8954  -31.8355   28.8766 H   0  0  0  0  0  0  0  0  0  0  0  0
  -16.1497  -31.3760   28.7722 H   0  0  0  0  0  0  0  0  0  0  0  0
  -16.0548  -31.9407   30.4330 H   0  0  0  0  0  0  0  0  0  0  0  0
  -15.8899  -29.5817   31.2355 H   0  0  0  0  0  0  0  0  0  0  0  0
  -17.3664  -29.8487   30.3149 H   0  0  0  0  0  0  0  0  0  0  0  0
  -15.9394  -27.8157   29.8604 H   0  0  0  0  0  0  0  0  0  0  0  0
  -14.2122  -27.8752   28.4554 H   0  0  0  0  0  0  0  0  0  0  0  0
  -14.8293  -29.3079   27.6657 H   0  0  0  0  0  0  0  0  0  0  0  0
  -10.0241  -30.1510   28.1627 H   0  0  0  0  0  0  0  0  0  0  0  0
   -9.0354  -31.4853   26.9994 H   0  0  0  0  0  0  0  0  0  0  0  0
  -10.2067  -31.5307   25.7835 H   0  0  0  0  0  0  0  0  0  0  0  0
   -9.0159  -29.5129   24.6615 H   0  0  0  0  0  0  0  0  0  0  0  0
   -7.9624  -30.8435   24.8779 H   0  0  0  0  0  0  0  0  0  0  0  0
   -7.3531  -29.8904   27.1657 H   0  0  0  0  0  0  0  0  0  0  0  0
   -5.4946  -28.4628   27.5414 H   0  0  0  0  0  0  0  0  0  0  0  0
   -4.6587  -27.9188   26.1022 H   0  0  0  0  0  0  0  0  0  0  0  0
   -5.7262  -26.1413   26.1306 H   0  0  0  0  0  0  0  0  0  0  0  0
   -8.3480  -27.2446   26.2913 H   0  0  0  0  0  0  0  0  0  0  0  0
   -8.0791  -27.9445   27.8653 H   0  0  0  0  0  0  0  0  0  0  0  0
  -11.5038  -27.3753   28.3662 H   0  0  0  0  0  0  0  0  0  0  0  0
  -10.0705  -27.8529   29.2320 H   0  0  0  0  0  0  0  0  0  0  0  0
   -8.6823  -26.1133   28.1869 H   0  0  0  0  0  0  0  0  0  0  0  0
  -10.0009  -25.5767   29.0474 H   0  0  0  0  0  0  0  0  0  0  0  0
   -9.3048  -24.9547   26.4220 H   0  0  0  0  0  0  0  0  0  0  0  0
  -11.2214  -23.5243   26.4645 H   0  0  0  0  0  0  0  0  0  0  0  0
  -10.4628  -22.2658   28.1639 H   0  0  0  0  0  0  0  0  0  0  0  0
   -9.3289  -23.5370   28.5165 H   0  0  0  0  0  0  0  0  0  0  0  0
   -9.3368  -25.3812   30.8312 H   0  0  0  0  0  0  0  0  0  0  0  0
   -9.4324  -26.1019   33.1254 H   0  0  0  0  0  0  0  0  0  0  0  0
  -10.9524  -25.0348   34.7423 H   0  0  0  0  0  0  0  0  0  0  0  0
  -11.8693  -21.1702   31.1815 H   0  0  0  0  0  0  0  0  0  0  0  0
  -13.1152  -23.3167   30.3799 H   0  0  0  0  0  0  0  0  0  0  0  0
  -12.7630  -22.7239   28.7919 H   0  0  0  0  0  0  0  0  0  0  0  0
  -13.5493  -25.4522   29.1133 H   0  0  0  0  0  0  0  0  0  0  0  0
  -11.8994  -25.6102   29.4019 H   0  0  0  0  0  0  0  0  0  0  0  0
  -10.7235  -25.7902   24.8920 H   0  0  0  0  0  0  0  0  0  0  0  0
  -12.0654  -25.9802   25.8718 H   0  0  0  0  0  0  0  0  0  0  0  0
  -11.9014  -28.0575   25.9926 H   0  0  0  0  0  0  0  0  0  0  0  0
  -10.5015  -28.0409   24.9564 H   0  0  0  0  0  0  0  0  0  0  0  0
  1  2  2  0
  2  3  1  0
  3  4  1  0
  4  5  1  0
  5  6  1  0
  6  7  1  0
  7  8  1  0
  8  9  1  0
  2 10  1  0
 10 11  1  0
 11 12  1  0
 12 13  1  0
 13 14  1  0
 14 15  1  0
 15 16  1  0
 13 17  1  0
 17 18  1  0
 18 19  1  0
 19 20  1  0
 20 21  1  0
 21 22  1  0
 22 23  1  0
 23 24  1  0
 24 25  1  0
 25 26  2  0
 26 27  1  0
 27 28  2  0
 28 29  1  0
 29 30  2  0
 30 31  1  0
 31 32  2  0
 32 33  1  0
 24 34  1  0
 34 35  1  0
 35 36  1  0
 21 37  1  0
 37 38  1  0
  9  4  1  0
 18 10  1  0
 36 22  1  0
 38 18  1  0
 33 25  1  0
 33 29  1  0
  3 39  1  0
  4 40  1  0
  5 41  1  0
  5 42  1  0
  6 43  1  0
  6 44  1  0
  7 45  1  0
  7 46  1  0
  8 47  1  0
  9 48  1  0
  9 49  1  0
 10 50  1  0
 11 51  1  0
 11 52  1  0
 12 53  1  0
 12 54  1  0
 13 55  1  0
 15 56  1  0
 15 57  1  0
 16 58  1  0
 17 59  1  0
 17 60  1  0
 19 61  1  0
 19 62  1  0
 20 63  1  0
 20 64  1  0
 21 65  1  0
 22 66  1  0
 23 67  1  0
 23 68  1  0
 26 69  1  0
 27 70  1  0
 28 71  1  0
 32 72  1  0
 34 73  1  0
 34 74  1  0
 35 75  1  0
 35 76  1  0
 37 77  1  0
 37 78  1  0
 38 79  1  0
 38 80  1  0
M  END
>  <Energy>  (714) 
239.42901936029793

>  <compound_id>  (714) 
2000

>  <target_id>  (714) 
1

>  <reference_id>  (714) 
45

>  <inspiration_ids>  (714) 
[32, 45]

>  <energy_score>  (714) 
-3.3071421109758603

>  <distance_score>  (714) 
3.5184443392405504

>  <path>  (714) 
/opt/xchem-fragalysis-2/maxwin/BulkDock/SCRATCH/505732/C2000-P45/C2000-P45.minimised.mol

>  <scratch_subdir>  (714) 
/opt/xchem-fragalysis-2/maxwin/BulkDock/SCRATCH/505732/C2000-P45

>  <fragmenstein_runtime>  (714) 
53.061848163604736

>  <fragmenstein_outcome>  (714) 
too moved

>  <fragmenstein_mode>  (714) 
expansion

>  <fragmenstein_error>  (714) 


$$$$
C2001-P32
     RDKit          3D

 69 72  0  0  0  0  0  0  0  0999 V2000
  -15.4344  -24.7262   27.3603 O   0  0  0  0  0  0  0  0  0  0  0  0
  -14.3651  -24.9715   27.7445 C   0  0  0  0  0  0  0  0  0  0  0  0
  -13.8891  -26.0072   28.7889 N   0  0  0  0  0  0  0  0  0  0  0  0
  -14.6178  -27.0112   29.4994 C   0  0  0  0  0  0  0  0  0  0  0  0
  -13.5556  -27.9449   30.0987 C   0  0  0  0  0  0  0  0  0  0  0  0
  -12.8141  -28.7097   28.9919 C   0  0  0  0  0  0  0  0  0  0  0  0
  -13.8216  -29.4608   28.1167 C   0  0  0  0  0  0  0  0  0  0  0  0
  -14.7851  -28.5433   27.5148 N   0  0  0  0  0  0  0  0  0  0  0  0
  -15.5281  -27.7875   28.5402 C   0  0  0  0  0  0  0  0  0  0  0  0
  -13.0544  -24.4013   27.2500 C   0  0  0  0  0  0  0  0  0  0  0  0
  -13.0750  -23.5812   25.9842 C   0  0  0  0  0  0  0  0  0  0  0  0
  -11.6861  -22.9484   25.8286 C   0  0  0  0  0  0  0  0  0  0  0  0
  -10.5759  -23.7896   26.5063 C   0  0  0  0  0  0  0  0  0  0  0  0
  -10.7319  -23.9119   28.0574 C   0  0  0  0  0  0  0  0  0  0  0  0
   -9.7949  -22.8822   28.7613 C   0  0  0  0  0  0  0  0  0  0  0  0
   -9.0946  -23.4630   30.0095 C   0  0  0  0  0  0  0  0  0  0  0  0
  -10.1402  -24.0585   30.9123 C   0  0  0  0  0  0  0  0  0  0  0  0
   -9.7574  -24.2525   32.3394 N   0  0  0  0  0  0  0  0  0  0  0  0
   -9.1628  -22.9902   33.3125 S   0  0  0  0  0  0  0  0  0  0  0  0
   -7.9373  -22.5315   32.7188 O   0  0  0  0  0  0  0  0  0  0  0  0
   -9.2179  -23.4001   34.6991 O   0  0  0  0  0  0  0  0  0  0  0  0
  -10.2473  -21.7666   33.2176 N   0  0  0  0  0  0  0  0  0  0  0  0
  -11.5211  -21.9841   33.8643 C   0  0  0  0  0  0  0  0  0  0  0  0
  -12.2244  -20.6499   34.0698 C   0  0  0  0  0  0  0  0  0  0  0  0
  -12.3592  -19.7471   32.9010 N   0  0  0  0  0  0  0  0  0  0  0  0
  -11.7109  -20.3599   31.7563 C   0  0  0  0  0  0  0  0  0  0  0  0
  -10.3416  -20.9135   32.0639 C   0  0  0  0  0  0  0  0  0  0  0  0
  -10.5085  -25.3685   30.2037 C   0  0  0  0  0  0  0  0  0  0  0  0
  -10.3586  -25.3105   28.6379 C   0  0  0  0  0  0  0  0  0  0  0  0
  -12.2300  -23.6675   28.3329 C   0  0  0  0  0  0  0  0  0  0  0  0
  -12.8845  -26.0126   28.8231 H   0  0  0  0  0  0  0  0  0  0  0  0
  -15.2055  -26.5178   30.2794 H   0  0  0  0  0  0  0  0  0  0  0  0
  -14.0498  -28.6667   30.7617 H   0  0  0  0  0  0  0  0  0  0  0  0
  -12.8393  -27.3974   30.7182 H   0  0  0  0  0  0  0  0  0  0  0  0
  -12.1245  -29.4276   29.4503 H   0  0  0  0  0  0  0  0  0  0  0  0
  -12.2072  -28.0336   28.3839 H   0  0  0  0  0  0  0  0  0  0  0  0
  -14.3457  -30.2197   28.7108 H   0  0  0  0  0  0  0  0  0  0  0  0
  -13.2936  -29.9974   27.3233 H   0  0  0  0  0  0  0  0  0  0  0  0
  -15.4515  -29.0627   26.9444 H   0  0  0  0  0  0  0  0  0  0  0  0
  -16.1466  -28.4873   29.1169 H   0  0  0  0  0  0  0  0  0  0  0  0
  -16.2231  -27.1099   28.0337 H   0  0  0  0  0  0  0  0  0  0  0  0
  -12.5240  -25.3188   26.9471 H   0  0  0  0  0  0  0  0  0  0  0  0
  -13.3498  -24.2447   25.1628 H   0  0  0  0  0  0  0  0  0  0  0  0
  -13.8566  -22.8263   25.9484 H   0  0  0  0  0  0  0  0  0  0  0  0
  -11.4565  -22.7565   24.7771 H   0  0  0  0  0  0  0  0  0  0  0  0
  -11.6829  -21.9631   26.3057 H   0  0  0  0  0  0  0  0  0  0  0  0
  -10.5221  -24.7808   26.0421 H   0  0  0  0  0  0  0  0  0  0  0  0
   -9.6533  -23.2784   26.2780 H   0  0  0  0  0  0  0  0  0  0  0  0
   -9.0005  -22.5448   28.0920 H   0  0  0  0  0  0  0  0  0  0  0  0
  -10.3629  -21.9816   29.0196 H   0  0  0  0  0  0  0  0  0  0  0  0
   -8.3397  -24.1993   29.7130 H   0  0  0  0  0  0  0  0  0  0  0  0
   -8.5169  -22.7304   30.5259 H   0  0  0  0  0  0  0  0  0  0  0  0
  -11.0275  -23.4216   30.9305 H   0  0  0  0  0  0  0  0  0  0  0  0
   -9.0500  -24.9885   32.4811 H   0  0  0  0  0  0  0  0  0  0  0  0
  -12.0057  -22.6256   33.1671 H   0  0  0  0  0  0  0  0  0  0  0  0
  -11.4215  -22.5276   34.7908 H   0  0  0  0  0  0  0  0  0  0  0  0
  -11.5634  -20.1078   34.7423 H   0  0  0  0  0  0  0  0  0  0  0  0
  -13.2009  -20.7835   34.5421 H   0  0  0  0  0  0  0  0  0  0  0  0
  -11.8511  -18.8965   33.1511 H   0  0  0  0  0  0  0  0  0  0  0  0
  -11.5849  -19.6407   30.9468 H   0  0  0  0  0  0  0  0  0  0  0  0
  -12.3434  -21.1421   31.3304 H   0  0  0  0  0  0  0  0  0  0  0  0
   -9.6623  -20.0772   32.1855 H   0  0  0  0  0  0  0  0  0  0  0  0
  -10.1356  -21.5046   31.1956 H   0  0  0  0  0  0  0  0  0  0  0  0
  -11.5177  -25.6692   30.4777 H   0  0  0  0  0  0  0  0  0  0  0  0
   -9.8603  -26.1415   30.5897 H   0  0  0  0  0  0  0  0  0  0  0  0
   -9.3207  -25.5347   28.3609 H   0  0  0  0  0  0  0  0  0  0  0  0
  -10.9355  -26.1200   28.1854 H   0  0  0  0  0  0  0  0  0  0  0  0
  -12.5000  -24.0002   29.3206 H   0  0  0  0  0  0  0  0  0  0  0  0
  -12.4469  -22.5938   28.3378 H   0  0  0  0  0  0  0  0  0  0  0  0
  1  2  2  0
  2  3  1  0
  3  4  1  0
  4  5  1  0
  5  6  1  0
  6  7  1  0
  7  8  1  0
  8  9  1  0
  2 10  1  0
 10 11  1  0
 11 12  1  0
 12 13  1  0
 13 14  1  0
 14 15  1  0
 15 16  1  0
 16 17  1  0
 17 18  1  0
 18 19  1  0
 19 20  2  0
 19 21  2  0
 19 22  1  0
 22 23  1  0
 23 24  1  0
 24 25  1  0
 25 26  1  0
 26 27  1  0
 17 28  1  0
 28 29  1  0
 14 30  1  0
  9  4  1  0
 30 10  1  0
 29 14  1  0
 27 22  1  0
  3 31  1  0
  4 32  1  0
  5 33  1  0
  5 34  1  0
  6 35  1  0
  6 36  1  0
  7 37  1  0
  7 38  1  0
  8 39  1  0
  9 40  1  0
  9 41  1  0
 10 42  1  0
 11 43  1  0
 11 44  1  0
 12 45  1  0
 12 46  1  0
 13 47  1  0
 13 48  1  0
 15 49  1  0
 15 50  1  0
 16 51  1  0
 16 52  1  0
 17 53  1  0
 18 54  1  0
 23 55  1  0
 23 56  1  0
 24 57  1  0
 24 58  1  0
 25 59  1  0
 26 60  1  0
 26 61  1  0
 27 62  1  0
 27 63  1  0
 28 64  1  0
 28 65  1  0
 29 66  1  0
 29 67  1  0
 30 68  1  0
 30 69  1  0
M  END
>  <Energy>  (715) 
-25.085863440543744

>  <compound_id>  (715) 
2001

>  <target_id>  (715) 
1

>  <reference_id>  (715) 
32

>  <inspiration_ids>  (715) 
[32, 46]

>  <energy_score>  (715) 
-26.626692276404953

>  <distance_score>  (715) 
4.019045403988029

>  <path>  (715) 
/opt/xchem-fragalysis-2/maxwin/BulkDock/SCRATCH/505732/C2001-P32/C2001-P32.minimised.mol

>  <scratch_subdir>  (715) 
/opt/xchem-fragalysis-2/maxwin/BulkDock/SCRATCH/505732/C2001-P32

>  <fragmenstein_runtime>  (715) 
24.913759231567383

>  <fragmenstein_outcome>  (715) 
too moved

>  <fragmenstein_mode>  (715) 
expansion

>  <fragmenstein_error>  (715) 


$$$$
C2001-P46
     RDKit          3D

 69 72  0  0  0  0  0  0  0  0999 V2000
  -11.8402  -23.5495   28.2371 O   0  0  0  0  0  0  0  0  0  0  0  0
  -11.6389  -24.2853   27.3269 C   0  0  0  0  0  0  0  0  0  0  0  0
  -12.2340  -24.3600   26.0498 N   0  0  0  0  0  0  0  0  0  0  0  0
  -13.2642  -23.6839   25.5163 C   0  0  0  0  0  0  0  0  0  0  0  0
  -12.6913  -22.8535   24.4435 C   0  0  0  0  0  0  0  0  0  0  0  0
  -13.8262  -22.5415   23.5645 C   0  0  0  0  0  0  0  0  0  0  0  0
  -15.2576  -22.6326   24.1506 C   0  0  0  0  0  0  0  0  0  0  0  0
  -15.5671  -24.0098   24.5293 N   0  0  0  0  0  0  0  0  0  0  0  0
  -14.4133  -24.6481   25.1566 C   0  0  0  0  0  0  0  0  0  0  0  0
  -10.7391  -25.4667   27.2682 C   0  0  0  0  0  0  0  0  0  0  0  0
  -11.4158  -26.6845   26.5473 C   0  0  0  0  0  0  0  0  0  0  0  0
  -12.6884  -26.9601   27.3377 C   0  0  0  0  0  0  0  0  0  0  0  0
  -12.1419  -27.6936   28.5118 C   0  0  0  0  0  0  0  0  0  0  0  0
  -11.0332  -26.8262   29.2386 C   0  0  0  0  0  0  0  0  0  0  0  0
  -11.6970  -25.7317   29.9224 C   0  0  0  0  0  0  0  0  0  0  0  0
  -11.1999  -25.1353   31.1485 C   0  0  0  0  0  0  0  0  0  0  0  0
  -11.1953  -26.2900   32.1198 C   0  0  0  0  0  0  0  0  0  0  0  0
  -10.8718  -25.9957   33.4537 N   0  0  0  0  0  0  0  0  0  0  0  0
   -9.9165  -24.7384   33.6882 S   0  0  0  0  0  0  0  0  0  0  0  0
   -8.9331  -24.6260   32.6430 O   0  0  0  0  0  0  0  0  0  0  0  0
   -9.5572  -25.0046   35.0662 O   0  0  0  0  0  0  0  0  0  0  0  0
  -11.0915  -23.5529   33.4406 N   0  0  0  0  0  0  0  0  0  0  0  0
  -12.3710  -23.5689   34.1632 C   0  0  0  0  0  0  0  0  0  0  0  0
  -13.3616  -22.4941   33.6993 C   0  0  0  0  0  0  0  0  0  0  0  0
  -12.7336  -21.1711   33.6504 N   0  0  0  0  0  0  0  0  0  0  0  0
  -11.7506  -21.2609   32.5658 C   0  0  0  0  0  0  0  0  0  0  0  0
  -10.7941  -22.4436   32.5317 C   0  0  0  0  0  0  0  0  0  0  0  0
  -10.2293  -27.2941   31.6593 C   0  0  0  0  0  0  0  0  0  0  0  0
  -10.4218  -27.6893   30.2783 C   0  0  0  0  0  0  0  0  0  0  0  0
  -10.0391  -26.0795   28.4472 C   0  0  0  0  0  0  0  0  0  0  0  0
  -11.7614  -25.0447   25.5113 H   0  0  0  0  0  0  0  0  0  0  0  0
  -13.5043  -23.1599   26.4093 H   0  0  0  0  0  0  0  0  0  0  0  0
  -12.2297  -21.9372   24.8087 H   0  0  0  0  0  0  0  0  0  0  0  0
  -11.8389  -23.2741   23.9075 H   0  0  0  0  0  0  0  0  0  0  0  0
  -13.5568  -21.5528   23.2662 H   0  0  0  0  0  0  0  0  0  0  0  0
  -13.7677  -23.1737   22.6897 H   0  0  0  0  0  0  0  0  0  0  0  0
  -16.0745  -22.3562   23.4792 H   0  0  0  0  0  0  0  0  0  0  0  0
  -15.3992  -21.8801   24.9108 H   0  0  0  0  0  0  0  0  0  0  0  0
  -16.3478  -24.0124   25.1907 H   0  0  0  0  0  0  0  0  0  0  0  0
  -14.0642  -25.4449   24.4925 H   0  0  0  0  0  0  0  0  0  0  0  0
  -14.7455  -25.1849   26.0506 H   0  0  0  0  0  0  0  0  0  0  0  0
  -10.0654  -24.8672   26.7046 H   0  0  0  0  0  0  0  0  0  0  0  0
  -10.7098  -27.5200   26.5411 H   0  0  0  0  0  0  0  0  0  0  0  0
  -11.6411  -26.6286   25.4763 H   0  0  0  0  0  0  0  0  0  0  0  0
  -13.4631  -27.5073   26.8072 H   0  0  0  0  0  0  0  0  0  0  0  0
  -13.2335  -26.0695   27.6553 H   0  0  0  0  0  0  0  0  0  0  0  0
  -12.9601  -28.0010   29.1686 H   0  0  0  0  0  0  0  0  0  0  0  0
  -11.7566  -28.6466   28.1670 H   0  0  0  0  0  0  0  0  0  0  0  0
  -12.2446  -26.4927   30.3600 H   0  0  0  0  0  0  0  0  0  0  0  0
  -12.3563  -25.0796   29.3865 H   0  0  0  0  0  0  0  0  0  0  0  0
  -11.9286  -24.3900   31.4424 H   0  0  0  0  0  0  0  0  0  0  0  0
  -10.2432  -24.6760   30.9252 H   0  0  0  0  0  0  0  0  0  0  0  0
  -12.1451  -26.8022   32.1653 H   0  0  0  0  0  0  0  0  0  0  0  0
  -10.3676  -26.7789   33.8740 H   0  0  0  0  0  0  0  0  0  0  0  0
  -12.8436  -24.5444   34.0899 H   0  0  0  0  0  0  0  0  0  0  0  0
  -12.1345  -23.3697   35.2033 H   0  0  0  0  0  0  0  0  0  0  0  0
  -14.2487  -22.4781   34.3372 H   0  0  0  0  0  0  0  0  0  0  0  0
  -13.7448  -22.6847   32.7076 H   0  0  0  0  0  0  0  0  0  0  0  0
  -12.2256  -21.0360   34.5268 H   0  0  0  0  0  0  0  0  0  0  0  0
  -11.1597  -20.3458   32.5576 H   0  0  0  0  0  0  0  0  0  0  0  0
  -12.2931  -21.2925   31.6167 H   0  0  0  0  0  0  0  0  0  0  0  0
   -9.7902  -22.1049   32.7478 H   0  0  0  0  0  0  0  0  0  0  0  0
  -10.7771  -22.7634   31.4961 H   0  0  0  0  0  0  0  0  0  0  0  0
  -10.3102  -28.2228   32.2391 H   0  0  0  0  0  0  0  0  0  0  0  0
   -9.2558  -26.8561   31.7673 H   0  0  0  0  0  0  0  0  0  0  0  0
   -9.4274  -27.9541   29.9688 H   0  0  0  0  0  0  0  0  0  0  0  0
  -11.1507  -28.4764   30.4533 H   0  0  0  0  0  0  0  0  0  0  0  0
   -9.5191  -25.3321   29.0570 H   0  0  0  0  0  0  0  0  0  0  0  0
   -9.2880  -26.8025   28.1265 H   0  0  0  0  0  0  0  0  0  0  0  0
  1  2  2  0
  2  3  1  0
  3  4  1  0
  4  5  1  0
  5  6  1  0
  6  7  1  0
  7  8  1  0
  8  9  1  0
  2 10  1  0
 10 11  1  0
 11 12  1  0
 12 13  1  0
 13 14  1  0
 14 15  1  0
 15 16  1  0
 16 17  1  0
 17 18  1  0
 18 19  1  0
 19 20  2  0
 19 21  2  0
 19 22  1  0
 22 23  1  0
 23 24  1  0
 24 25  1  0
 25 26  1  0
 26 27  1  0
 17 28  1  0
 28 29  1  0
 14 30  1  0
  9  4  1  0
 30 10  1  0
 29 14  1  0
 27 22  1  0
  3 31  1  0
  4 32  1  0
  5 33  1  0
  5 34  1  0
  6 35  1  0
  6 36  1  0
  7 37  1  0
  7 38  1  0
  8 39  1  0
  9 40  1  0
  9 41  1  0
 10 42  1  0
 11 43  1  0
 11 44  1  0
 12 45  1  0
 12 46  1  0
 13 47  1  0
 13 48  1  0
 15 49  1  0
 15 50  1  0
 16 51  1  0
 16 52  1  0
 17 53  1  0
 18 54  1  0
 23 55  1  0
 23 56  1  0
 24 57  1  0
 24 58  1  0
 25 59  1  0
 26 60  1  0
 26 61  1  0
 27 62  1  0
 27 63  1  0
 28 64  1  0
 28 65  1  0
 29 66  1  0
 29 67  1  0
 30 68  1  0
 30 69  1  0
M  END
>  <Energy>  (716) 
107.35018764693974

>  <compound_id>  (716) 
2001

>  <target_id>  (716) 
1

>  <reference_id>  (716) 
46

>  <inspiration_ids>  (716) 
[32, 46]

>  <energy_score>  (716) 
129.44278872811492

>  <distance_score>  (716) 
3.594610736661465

>  <path>  (716) 
/opt/xchem-fragalysis-2/maxwin/BulkDock/SCRATCH/505732/C2001-P46/C2001-P46.minimised.mol

>  <scratch_subdir>  (716) 
/opt/xchem-fragalysis-2/maxwin/BulkDock/SCRATCH/505732/C2001-P46

>  <fragmenstein_runtime>  (716) 
45.933998107910156

>  <fragmenstein_outcome>  (716) 
too moved

>  <fragmenstein_mode>  (716) 
expansion

>  <fragmenstein_error>  (716) 


$$$$
C2003-P32
     RDKit          3D

 55 59  0  0  0  0  0  0  0  0999 V2000
  -11.4136  -25.6435   31.3206 F   0  0  0  0  0  0  0  0  0  0  0  0
  -10.9077  -24.9749   30.2620 C   0  0  0  0  0  0  0  0  0  0  0  0
  -11.9948  -24.2854   29.4619 C   0  0  0  0  0  0  0  0  0  0  0  0
  -12.1668  -22.7726   29.6786 C   0  0  0  0  0  0  0  0  0  0  0  0
  -10.8992  -21.9545   29.5413 C   0  0  0  0  0  0  0  0  0  0  0  0
  -11.1139  -20.5147   30.2906 C   0  0  0  0  0  0  0  0  0  0  0  0
  -10.6529  -20.1614   31.6315 N   0  0  0  0  0  0  0  0  0  0  0  0
  -10.6829  -21.2977   32.5253 C   0  0  0  0  0  0  0  0  0  0  0  0
   -9.2467  -21.7285   32.8373 C   0  0  0  0  0  0  0  0  0  0  0  0
   -9.1434  -22.8986   33.7591 C   0  0  0  0  0  0  0  0  0  0  0  0
  -10.1813  -22.8556   34.8178 C   0  0  0  0  0  0  0  0  0  0  0  0
  -11.4961  -22.4343   34.3822 N   0  0  0  0  0  0  0  0  0  0  0  0
  -11.5003  -21.1174   33.7803 C   0  0  0  0  0  0  0  0  0  0  0  0
  -10.8823  -21.6774   28.1097 N   0  0  0  0  0  0  0  0  0  0  0  0
   -9.9983  -22.6433   27.5357 C   0  0  0  0  0  0  0  0  0  0  0  0
  -10.5330  -23.3477   25.9840 S   0  0  0  0  0  0  0  0  0  0  0  0
  -11.8717  -24.3387   26.2576 C   0  0  0  0  0  0  0  0  0  0  0  0
  -13.1340  -23.9299   26.0497 C   0  0  0  0  0  0  0  0  0  0  0  0
  -14.2271  -24.8496   26.3559 C   0  0  0  0  0  0  0  0  0  0  0  0
  -13.9936  -26.0531   26.9180 C   0  0  0  0  0  0  0  0  0  0  0  0
  -12.6544  -26.4287   27.2134 C   0  0  0  0  0  0  0  0  0  0  0  0
  -12.1276  -27.3359   28.0045 N   0  0  0  0  0  0  0  0  0  0  0  0
  -10.7677  -27.2034   27.9477 N   0  0  0  0  0  0  0  0  0  0  0  0
  -10.4842  -26.2175   27.1351 C   0  0  0  0  0  0  0  0  0  0  0  0
  -11.6461  -25.6134   26.7517 N   0  0  0  0  0  0  0  0  0  0  0  0
   -9.3153  -23.3865   28.5490 N   0  0  0  0  0  0  0  0  0  0  0  0
   -9.7291  -22.8188   29.8086 N   0  0  0  0  0  0  0  0  0  0  0  0
   -9.9289  -23.9437   30.7309 C   0  0  0  0  0  0  0  0  0  0  0  0
  -10.3864  -25.7264   29.6819 H   0  0  0  0  0  0  0  0  0  0  0  0
  -11.6506  -24.3099   28.4698 H   0  0  0  0  0  0  0  0  0  0  0  0
  -12.9315  -24.8505   29.4470 H   0  0  0  0  0  0  0  0  0  0  0  0
  -12.5615  -22.4738   30.6365 H   0  0  0  0  0  0  0  0  0  0  0  0
  -12.9269  -22.4399   28.9768 H   0  0  0  0  0  0  0  0  0  0  0  0
  -12.1873  -20.3157   30.2777 H   0  0  0  0  0  0  0  0  0  0  0  0
  -10.6748  -19.7418   29.6513 H   0  0  0  0  0  0  0  0  0  0  0  0
  -11.1979  -19.3897   32.0107 H   0  0  0  0  0  0  0  0  0  0  0  0
  -11.2164  -22.0961   32.0349 H   0  0  0  0  0  0  0  0  0  0  0  0
   -8.6746  -20.8964   33.2414 H   0  0  0  0  0  0  0  0  0  0  0  0
   -8.6959  -22.0413   31.9603 H   0  0  0  0  0  0  0  0  0  0  0  0
   -9.2351  -23.8401   33.2242 H   0  0  0  0  0  0  0  0  0  0  0  0
   -8.1497  -22.8959   34.2096 H   0  0  0  0  0  0  0  0  0  0  0  0
  -10.1833  -23.8287   35.2940 H   0  0  0  0  0  0  0  0  0  0  0  0
   -9.8541  -22.2281   35.6294 H   0  0  0  0  0  0  0  0  0  0  0  0
  -12.0834  -22.3845   35.2244 H   0  0  0  0  0  0  0  0  0  0  0  0
  -11.1136  -20.3481   34.4449 H   0  0  0  0  0  0  0  0  0  0  0  0
  -12.5211  -20.8091   33.5403 H   0  0  0  0  0  0  0  0  0  0  0  0
  -10.4767  -20.7612   27.9339 H   0  0  0  0  0  0  0  0  0  0  0  0
   -9.0992  -22.1522   27.2709 H   0  0  0  0  0  0  0  0  0  0  0  0
  -13.3736  -22.9418   25.6658 H   0  0  0  0  0  0  0  0  0  0  0  0
  -15.2424  -24.5172   26.1581 H   0  0  0  0  0  0  0  0  0  0  0  0
  -14.7993  -26.7254   27.1927 H   0  0  0  0  0  0  0  0  0  0  0  0
   -9.4928  -25.8957   26.8557 H   0  0  0  0  0  0  0  0  0  0  0  0
   -9.4060  -24.3852   28.4324 H   0  0  0  0  0  0  0  0  0  0  0  0
  -10.3245  -23.6413   31.6798 H   0  0  0  0  0  0  0  0  0  0  0  0
   -8.9656  -24.4199   30.9534 H   0  0  0  0  0  0  0  0  0  0  0  0
  1  2  1  0
  2  3  1  0
  3  4  1  0
  4  5  1  0
  5  6  1  0
  6  7  1  0
  7  8  1  0
  8  9  1  0
  9 10  1  0
 10 11  1  0
 11 12  1  0
 12 13  1  0
  5 14  1  0
 14 15  1  0
 15 16  1  0
 16 17  1  0
 17 18  2  0
 18 19  1  0
 19 20  2  0
 20 21  1  0
 21 22  2  0
 22 23  1  0
 23 24  2  0
 24 25  1  0
 15 26  1  0
 26 27  1  0
 27 28  1  0
 28  2  1  0
 27  5  1  0
 13  8  1  0
 25 17  1  0
 25 21  1  0
  2 29  1  0
  3 30  1  0
  3 31  1  0
  4 32  1  0
  4 33  1  0
  6 34  1  0
  6 35  1  0
  7 36  1  0
  8 37  1  0
  9 38  1  0
  9 39  1  0
 10 40  1  0
 10 41  1  0
 11 42  1  0
 11 43  1  0
 12 44  1  0
 13 45  1  0
 13 46  1  0
 14 47  1  0
 15 48  1  0
 18 49  1  0
 19 50  1  0
 20 51  1  0
 24 52  1  0
 26 53  1  0
 28 54  1  0
 28 55  1  0
M  END
>  <Energy>  (717) 
172.84566163724227

>  <compound_id>  (717) 
2003

>  <target_id>  (717) 
1

>  <reference_id>  (717) 
32

>  <inspiration_ids>  (717) 
[32, 49]

>  <energy_score>  (717) 
16.553585312756212

>  <distance_score>  (717) 
2.668931814305346

>  <path>  (717) 
/opt/xchem-fragalysis-2/maxwin/BulkDock/SCRATCH/505732/C2003-P32/C2003-P32.minimised.mol

>  <scratch_subdir>  (717) 
/opt/xchem-fragalysis-2/maxwin/BulkDock/SCRATCH/505732/C2003-P32

>  <fragmenstein_runtime>  (717) 
8.455897569656372

>  <fragmenstein_outcome>  (717) 
too moved

>  <fragmenstein_mode>  (717) 
expansion

>  <fragmenstein_error>  (717) 


$$$$
C2003-P49
     RDKit          3D

 55 59  0  0  0  0  0  0  0  0999 V2000
  -12.9921  -25.1280   25.8731 F   0  0  0  0  0  0  0  0  0  0  0  0
  -12.2415  -24.5195   26.8287 C   0  0  0  0  0  0  0  0  0  0  0  0
  -11.7711  -23.1849   26.3476 C   0  0  0  0  0  0  0  0  0  0  0  0
  -11.0400  -22.4251   27.4416 C   0  0  0  0  0  0  0  0  0  0  0  0
  -11.3978  -22.7116   28.9189 C   0  0  0  0  0  0  0  0  0  0  0  0
  -11.5631  -21.3090   29.6523 C   0  0  0  0  0  0  0  0  0  0  0  0
  -12.2248  -21.2233   30.9505 N   0  0  0  0  0  0  0  0  0  0  0  0
  -11.4277  -20.7971   32.1054 C   0  0  0  0  0  0  0  0  0  0  0  0
  -10.4886  -21.8729   32.6744 C   0  0  0  0  0  0  0  0  0  0  0  0
  -11.0798  -22.6783   33.8288 C   0  0  0  0  0  0  0  0  0  0  0  0
  -12.5921  -22.6922   33.8091 C   0  0  0  0  0  0  0  0  0  0  0  0
  -13.2655  -21.4082   33.7153 N   0  0  0  0  0  0  0  0  0  0  0  0
  -12.3926  -20.3522   33.2303 C   0  0  0  0  0  0  0  0  0  0  0  0
  -10.2737  -23.4216   29.5504 N   0  0  0  0  0  0  0  0  0  0  0  0
  -10.7950  -24.6151   30.1517 C   0  0  0  0  0  0  0  0  0  0  0  0
  -10.3658  -26.0362   29.1223 S   0  0  0  0  0  0  0  0  0  0  0  0
  -11.6876  -27.1526   29.3413 C   0  0  0  0  0  0  0  0  0  0  0  0
  -12.4803  -27.5171   28.3143 C   0  0  0  0  0  0  0  0  0  0  0  0
  -13.5446  -28.4921   28.4942 C   0  0  0  0  0  0  0  0  0  0  0  0
  -13.7400  -29.0902   29.6797 C   0  0  0  0  0  0  0  0  0  0  0  0
  -12.9010  -28.7405   30.7644 C   0  0  0  0  0  0  0  0  0  0  0  0
  -12.8442  -29.1667   32.0027 N   0  0  0  0  0  0  0  0  0  0  0  0
  -11.8361  -28.4926   32.6290 N   0  0  0  0  0  0  0  0  0  0  0  0
  -11.3412  -27.6187   31.7910 C   0  0  0  0  0  0  0  0  0  0  0  0
  -11.9333  -27.7642   30.5677 N   0  0  0  0  0  0  0  0  0  0  0  0
  -12.2153  -24.4207   30.2217 N   0  0  0  0  0  0  0  0  0  0  0  0
  -12.5894  -23.5396   29.1589 N   0  0  0  0  0  0  0  0  0  0  0  0
  -13.1134  -24.3522   28.0535 C   0  0  0  0  0  0  0  0  0  0  0  0
  -11.3715  -25.1502   26.9632 H   0  0  0  0  0  0  0  0  0  0  0  0
  -11.1063  -23.2994   25.4855 H   0  0  0  0  0  0  0  0  0  0  0  0
  -12.6297  -22.6314   25.9673 H   0  0  0  0  0  0  0  0  0  0  0  0
  -11.1444  -21.3575   27.2274 H   0  0  0  0  0  0  0  0  0  0  0  0
   -9.9771  -22.6472   27.2955 H   0  0  0  0  0  0  0  0  0  0  0  0
  -12.1857  -20.7209   28.9886 H   0  0  0  0  0  0  0  0  0  0  0  0
  -10.6527  -20.7193   29.6200 H   0  0  0  0  0  0  0  0  0  0  0  0
  -12.8369  -22.0143   31.1398 H   0  0  0  0  0  0  0  0  0  0  0  0
  -10.8330  -19.9240   31.8121 H   0  0  0  0  0  0  0  0  0  0  0  0
   -9.5665  -21.3987   33.0241 H   0  0  0  0  0  0  0  0  0  0  0  0
  -10.1527  -22.5515   31.8937 H   0  0  0  0  0  0  0  0  0  0  0  0
  -10.6778  -23.6966   33.7952 H   0  0  0  0  0  0  0  0  0  0  0  0
  -10.7754  -22.2806   34.7936 H   0  0  0  0  0  0  0  0  0  0  0  0
  -12.9783  -23.2053   34.6882 H   0  0  0  0  0  0  0  0  0  0  0  0
  -12.8553  -23.2680   32.9340 H   0  0  0  0  0  0  0  0  0  0  0  0
  -14.0714  -21.5232   33.0921 H   0  0  0  0  0  0  0  0  0  0  0  0
  -13.0395  -19.5442   32.8981 H   0  0  0  0  0  0  0  0  0  0  0  0
  -11.8227  -19.9473   34.0715 H   0  0  0  0  0  0  0  0  0  0  0  0
   -9.5851  -23.7259   28.8727 H   0  0  0  0  0  0  0  0  0  0  0  0
  -10.3625  -24.7718   31.1434 H   0  0  0  0  0  0  0  0  0  0  0  0
  -12.3887  -27.1069   27.3189 H   0  0  0  0  0  0  0  0  0  0  0  0
  -14.1679  -28.7326   27.6371 H   0  0  0  0  0  0  0  0  0  0  0  0
  -14.5204  -29.8280   29.8317 H   0  0  0  0  0  0  0  0  0  0  0  0
  -10.5504  -26.9151   32.0102 H   0  0  0  0  0  0  0  0  0  0  0  0
  -12.4004  -23.9725   31.1237 H   0  0  0  0  0  0  0  0  0  0  0  0
  -13.4808  -25.3144   28.4117 H   0  0  0  0  0  0  0  0  0  0  0  0
  -14.0680  -23.9619   27.6979 H   0  0  0  0  0  0  0  0  0  0  0  0
  1  2  1  0
  2  3  1  0
  3  4  1  0
  4  5  1  0
  5  6  1  0
  6  7  1  0
  7  8  1  0
  8  9  1  0
  9 10  1  0
 10 11  1  0
 11 12  1  0
 12 13  1  0
  5 14  1  0
 14 15  1  0
 15 16  1  0
 16 17  1  0
 17 18  2  0
 18 19  1  0
 19 20  2  0
 20 21  1  0
 21 22  2  0
 22 23  1  0
 23 24  2  0
 24 25  1  0
 15 26  1  0
 26 27  1  0
 27 28  1  0
 28  2  1  0
 27  5  1  0
 13  8  1  0
 25 17  1  0
 25 21  1  0
  2 29  1  0
  3 30  1  0
  3 31  1  0
  4 32  1  0
  4 33  1  0
  6 34  1  0
  6 35  1  0
  7 36  1  0
  8 37  1  0
  9 38  1  0
  9 39  1  0
 10 40  1  0
 10 41  1  0
 11 42  1  0
 11 43  1  0
 12 44  1  0
 13 45  1  0
 13 46  1  0
 14 47  1  0
 15 48  1  0
 18 49  1  0
 19 50  1  0
 20 51  1  0
 24 52  1  0
 26 53  1  0
 28 54  1  0
 28 55  1  0
M  END
>  <Energy>  (718) 
118.32359180569603

>  <compound_id>  (718) 
2003

>  <target_id>  (718) 
1

>  <reference_id>  (718) 
49

>  <inspiration_ids>  (718) 
[32, 49]

>  <energy_score>  (718) 
-27.44434841008561

>  <distance_score>  (718) 
3.7029580724065463

>  <path>  (718) 
/opt/xchem-fragalysis-2/maxwin/BulkDock/SCRATCH/505732/C2003-P49/C2003-P49.minimised.mol

>  <scratch_subdir>  (718) 
/opt/xchem-fragalysis-2/maxwin/BulkDock/SCRATCH/505732/C2003-P49

>  <fragmenstein_runtime>  (718) 
11.903565645217896

>  <fragmenstein_outcome>  (718) 
too moved

>  <fragmenstein_mode>  (718) 
expansion

>  <fragmenstein_error>  (718) 


$$$$
C2004-P32
     RDKit          3D

 60 65  0  0  0  0  0  0  0  0999 V2000
  -15.7547  -26.9321   28.7359 O   0  0  0  0  0  0  0  0  0  0  0  0
  -15.4294  -26.2584   27.8425 C   0  0  0  0  0  0  0  0  0  0  0  0
  -16.2751  -25.4846   26.8187 N   0  0  0  0  0  0  0  0  0  0  0  0
  -17.7116  -25.2963   26.7322 C   0  0  0  0  0  0  0  0  0  0  0  0
  -18.4180  -26.5781   26.2674 C   0  0  0  0  0  0  0  0  0  0  0  0
  -18.9861  -26.4502   24.8556 C   0  0  0  0  0  0  0  0  0  0  0  0
  -18.0458  -25.6568   23.9585 C   0  0  0  0  0  0  0  0  0  0  0  0
  -17.7713  -24.2838   24.4199 N   0  0  0  0  0  0  0  0  0  0  0  0
  -18.0751  -24.0911   25.8496 C   0  0  0  0  0  0  0  0  0  0  0  0
  -13.9509  -26.0156   27.7023 C   0  0  0  0  0  0  0  0  0  0  0  0
  -13.0917  -26.9805   28.2358 C   0  0  0  0  0  0  0  0  0  0  0  0
  -11.7266  -26.7191   28.3753 C   0  0  0  0  0  0  0  0  0  0  0  0
  -11.1948  -25.4769   28.0413 C   0  0  0  0  0  0  0  0  0  0  0  0
   -9.8503  -25.1926   28.3578 N   0  0  0  0  0  0  0  0  0  0  0  0
   -9.4695  -23.8870   28.6668 O   0  0  0  0  0  0  0  0  0  0  0  0
  -10.0111  -23.4805   29.8704 C   0  0  0  0  0  0  0  0  0  0  0  0
   -9.6256  -24.0593   31.0826 C   0  0  0  0  0  0  0  0  0  0  0  0
  -10.0169  -23.4795   32.2919 C   0  0  0  0  0  0  0  0  0  0  0  0
  -10.8066  -22.3253   32.2138 C   0  0  0  0  0  0  0  0  0  0  0  0
  -11.3269  -21.4942   33.1715 N   0  0  0  0  0  0  0  0  0  0  0  0
  -12.0918  -20.5476   32.5544 C   0  0  0  0  0  0  0  0  0  0  0  0
  -12.8112  -19.3199   33.5259 S   0  0  0  0  0  0  0  0  0  0  0  0
  -14.5417  -19.6229   33.5014 C   0  0  0  0  0  0  0  0  0  0  0  0
  -15.3936  -18.8678   32.7770 C   0  0  0  0  0  0  0  0  0  0  0  0
  -16.8360  -18.9991   32.9263 C   0  0  0  0  0  0  0  0  0  0  0  0
  -17.3762  -19.8858   33.7768 C   0  0  0  0  0  0  0  0  0  0  0  0
  -16.5150  -20.7037   34.5433 C   0  0  0  0  0  0  0  0  0  0  0  0
  -16.7552  -21.6278   35.4479 N   0  0  0  0  0  0  0  0  0  0  0  0
  -15.5435  -22.1132   35.8691 N   0  0  0  0  0  0  0  0  0  0  0  0
  -14.6074  -21.4420   35.2333 C   0  0  0  0  0  0  0  0  0  0  0  0
  -15.1434  -20.5330   34.3829 N   0  0  0  0  0  0  0  0  0  0  0  0
  -12.0545  -20.6661   31.2450 N   0  0  0  0  0  0  0  0  0  0  0  0
  -11.2616  -21.7753   31.0185 C   0  0  0  0  0  0  0  0  0  0  0  0
  -10.8565  -22.3610   29.8143 C   0  0  0  0  0  0  0  0  0  0  0  0
  -12.0266  -24.5573   27.3979 C   0  0  0  0  0  0  0  0  0  0  0  0
  -13.3970  -24.8200   27.2343 C   0  0  0  0  0  0  0  0  0  0  0  0
  -15.6672  -25.0669   26.1251 H   0  0  0  0  0  0  0  0  0  0  0  0
  -18.0331  -25.0969   27.7613 H   0  0  0  0  0  0  0  0  0  0  0  0
  -17.7368  -27.4370   26.3115 H   0  0  0  0  0  0  0  0  0  0  0  0
  -19.2459  -26.8100   26.9490 H   0  0  0  0  0  0  0  0  0  0  0  0
  -19.9659  -25.9572   24.8922 H   0  0  0  0  0  0  0  0  0  0  0  0
  -19.1561  -27.4485   24.4364 H   0  0  0  0  0  0  0  0  0  0  0  0
  -17.0925  -26.1934   23.8844 H   0  0  0  0  0  0  0  0  0  0  0  0
  -18.4561  -25.6125   22.9434 H   0  0  0  0  0  0  0  0  0  0  0  0
  -18.3739  -23.6416   23.8969 H   0  0  0  0  0  0  0  0  0  0  0  0
  -19.1457  -23.8762   25.9604 H   0  0  0  0  0  0  0  0  0  0  0  0
  -17.5395  -23.1983   26.1900 H   0  0  0  0  0  0  0  0  0  0  0  0
  -13.4914  -27.9266   28.5978 H   0  0  0  0  0  0  0  0  0  0  0  0
  -11.1115  -27.4836   28.8356 H   0  0  0  0  0  0  0  0  0  0  0  0
   -9.4431  -25.8503   29.0167 H   0  0  0  0  0  0  0  0  0  0  0  0
   -8.9513  -24.9104   31.1059 H   0  0  0  0  0  0  0  0  0  0  0  0
   -9.6842  -23.8825   33.2420 H   0  0  0  0  0  0  0  0  0  0  0  0
  -11.2488  -21.6068   34.1729 H   0  0  0  0  0  0  0  0  0  0  0  0
  -15.0670  -18.1122   32.0978 H   0  0  0  0  0  0  0  0  0  0  0  0
  -17.4788  -18.3323   32.3656 H   0  0  0  0  0  0  0  0  0  0  0  0
  -18.4474  -19.9826   33.9087 H   0  0  0  0  0  0  0  0  0  0  0  0
  -13.5456  -21.6079   35.3091 H   0  0  0  0  0  0  0  0  0  0  0  0
  -11.1326  -21.9105   28.8686 H   0  0  0  0  0  0  0  0  0  0  0  0
  -11.6258  -23.6044   27.0579 H   0  0  0  0  0  0  0  0  0  0  0  0
  -14.0127  -24.0509   26.7843 H   0  0  0  0  0  0  0  0  0  0  0  0
  1  2  2  0
  2  3  1  0
  3  4  1  0
  4  5  1  0
  5  6  1  0
  6  7  1  0
  7  8  1  0
  8  9  1  0
  2 10  1  0
 10 11  2  0
 11 12  1  0
 12 13  2  0
 13 14  1  0
 14 15  1  0
 15 16  1  0
 16 17  2  0
 17 18  1  0
 18 19  2  0
 19 20  1  0
 20 21  1  0
 21 22  1  0
 22 23  1  0
 23 24  2  0
 24 25  1  0
 25 26  2  0
 26 27  1  0
 27 28  2  0
 28 29  1  0
 29 30  2  0
 30 31  1  0
 21 32  2  0
 32 33  1  0
 33 34  2  0
 13 35  1  0
 35 36  2  0
  9  4  1  0
 36 10  1  0
 34 16  1  0
 33 19  1  0
 31 23  1  0
 31 27  1  0
  3 37  1  0
  4 38  1  0
  5 39  1  0
  5 40  1  0
  6 41  1  0
  6 42  1  0
  7 43  1  0
  7 44  1  0
  8 45  1  0
  9 46  1  0
  9 47  1  0
 11 48  1  0
 12 49  1  0
 14 50  1  0
 17 51  1  0
 18 52  1  0
 20 53  1  0
 24 54  1  0
 25 55  1  0
 26 56  1  0
 30 57  1  0
 34 58  1  0
 35 59  1  0
 36 60  1  0
M  END
>  <Energy>  (719) 
94.082340703375777

>  <compound_id>  (719) 
2004

>  <target_id>  (719) 
1

>  <reference_id>  (719) 
32

>  <inspiration_ids>  (719) 
[32, 62]

>  <energy_score>  (719) 
-29.722208048948232

>  <distance_score>  (719) 
2.2533770412516203

>  <path>  (719) 
/opt/xchem-fragalysis-2/maxwin/BulkDock/SCRATCH/505732/C2004-P32/C2004-P32.minimised.mol

>  <scratch_subdir>  (719) 
/opt/xchem-fragalysis-2/maxwin/BulkDock/SCRATCH/505732/C2004-P32

>  <fragmenstein_runtime>  (719) 
21.014937162399292

>  <fragmenstein_outcome>  (719) 
too moved

>  <fragmenstein_mode>  (719) 
expansion

>  <fragmenstein_error>  (719) 


$$$$
C2004-P62
     RDKit          3D

 60 65  0  0  0  0  0  0  0  0999 V2000
  -16.5269  -23.5335   24.0040 O   0  0  0  0  0  0  0  0  0  0  0  0
  -16.4152  -24.4208   24.8012 C   0  0  0  0  0  0  0  0  0  0  0  0
  -17.3134  -25.4689   25.1597 N   0  0  0  0  0  0  0  0  0  0  0  0
  -18.6774  -25.7378   24.7466 C   0  0  0  0  0  0  0  0  0  0  0  0
  -19.6560  -24.8663   25.5480 C   0  0  0  0  0  0  0  0  0  0  0  0
  -20.2446  -25.6028   26.7570 C   0  0  0  0  0  0  0  0  0  0  0  0
  -19.2793  -26.6296   27.3458 C   0  0  0  0  0  0  0  0  0  0  0  0
  -18.7931  -27.6272   26.3825 N   0  0  0  0  0  0  0  0  0  0  0  0
  -18.9886  -27.2272   24.9748 C   0  0  0  0  0  0  0  0  0  0  0  0
  -15.1024  -24.4606   25.5551 C   0  0  0  0  0  0  0  0  0  0  0  0
  -14.8931  -25.1152   26.7771 C   0  0  0  0  0  0  0  0  0  0  0  0
  -13.6131  -25.1529   27.3769 C   0  0  0  0  0  0  0  0  0  0  0  0
  -12.5252  -24.5145   26.7960 C   0  0  0  0  0  0  0  0  0  0  0  0
  -11.2187  -24.4958   27.3574 N   0  0  0  0  0  0  0  0  0  0  0  0
  -10.8676  -25.3307   28.4289 O   0  0  0  0  0  0  0  0  0  0  0  0
  -11.2509  -24.8031   29.6480 C   0  0  0  0  0  0  0  0  0  0  0  0
  -11.0371  -25.6192   30.7670 C   0  0  0  0  0  0  0  0  0  0  0  0
  -11.5096  -25.2562   32.0358 C   0  0  0  0  0  0  0  0  0  0  0  0
  -12.2461  -24.0731   32.0994 C   0  0  0  0  0  0  0  0  0  0  0  0
  -12.9380  -23.4556   33.1105 N   0  0  0  0  0  0  0  0  0  0  0  0
  -13.5717  -22.3691   32.5715 C   0  0  0  0  0  0  0  0  0  0  0  0
  -14.4988  -21.2770   33.5176 S   0  0  0  0  0  0  0  0  0  0  0  0
  -16.1368  -21.6326   33.0878 C   0  0  0  0  0  0  0  0  0  0  0  0
  -16.9233  -20.6097   32.6795 C   0  0  0  0  0  0  0  0  0  0  0  0
  -18.3343  -20.8291   32.4076 C   0  0  0  0  0  0  0  0  0  0  0  0
  -18.9003  -22.0344   32.5903 C   0  0  0  0  0  0  0  0  0  0  0  0
  -18.1059  -23.1147   33.0554 C   0  0  0  0  0  0  0  0  0  0  0  0
  -18.4172  -24.3532   33.3668 N   0  0  0  0  0  0  0  0  0  0  0  0
  -17.2729  -24.9714   33.8051 N   0  0  0  0  0  0  0  0  0  0  0  0
  -16.2936  -24.0957   33.7419 C   0  0  0  0  0  0  0  0  0  0  0  0
  -16.7473  -22.8890   33.2784 N   0  0  0  0  0  0  0  0  0  0  0  0
  -13.2190  -22.1635   31.3314 N   0  0  0  0  0  0  0  0  0  0  0  0
  -12.4451  -23.2384   31.0087 C   0  0  0  0  0  0  0  0  0  0  0  0
  -11.8962  -23.5677   29.7757 C   0  0  0  0  0  0  0  0  0  0  0  0
  -12.7706  -23.7853   25.6352 C   0  0  0  0  0  0  0  0  0  0  0  0
  -14.0242  -23.7708   25.0093 C   0  0  0  0  0  0  0  0  0  0  0  0
  -16.9219  -25.9880   25.9291 H   0  0  0  0  0  0  0  0  0  0  0  0
  -18.7461  -25.4786   23.6843 H   0  0  0  0  0  0  0  0  0  0  0  0
  -19.1709  -23.9396   25.8790 H   0  0  0  0  0  0  0  0  0  0  0  0
  -20.4882  -24.5630   24.9005 H   0  0  0  0  0  0  0  0  0  0  0  0
  -21.1679  -26.1131   26.4527 H   0  0  0  0  0  0  0  0  0  0  0  0
  -20.5350  -24.8753   27.5238 H   0  0  0  0  0  0  0  0  0  0  0  0
  -18.4132  -26.1093   27.7718 H   0  0  0  0  0  0  0  0  0  0  0  0
  -19.7623  -27.1486   28.1817 H   0  0  0  0  0  0  0  0  0  0  0  0
  -19.2787  -28.5117   26.5384 H   0  0  0  0  0  0  0  0  0  0  0  0
  -20.0171  -27.4478   24.6637 H   0  0  0  0  0  0  0  0  0  0  0  0
  -18.3270  -27.8446   24.3563 H   0  0  0  0  0  0  0  0  0  0  0  0
  -15.7044  -25.6047   27.3018 H   0  0  0  0  0  0  0  0  0  0  0  0
  -13.4730  -25.6746   28.3159 H   0  0  0  0  0  0  0  0  0  0  0  0
  -10.5601  -24.6127   26.5874 H   0  0  0  0  0  0  0  0  0  0  0  0
  -10.5302  -26.5739   30.6426 H   0  0  0  0  0  0  0  0  0  0  0  0
  -11.3821  -25.9015   32.8977 H   0  0  0  0  0  0  0  0  0  0  0  0
  -13.0116  -23.7940   34.0611 H   0  0  0  0  0  0  0  0  0  0  0  0
  -16.5464  -19.6010   32.5597 H   0  0  0  0  0  0  0  0  0  0  0  0
  -18.9267  -19.9894   32.0612 H   0  0  0  0  0  0  0  0  0  0  0  0
  -19.9538  -22.2077   32.4029 H   0  0  0  0  0  0  0  0  0  0  0  0
  -15.2773  -24.2950   34.0310 H   0  0  0  0  0  0  0  0  0  0  0  0
  -12.0571  -22.8974   28.9413 H   0  0  0  0  0  0  0  0  0  0  0  0
  -11.9757  -23.2136   25.1795 H   0  0  0  0  0  0  0  0  0  0  0  0
  -14.1377  -23.1923   24.0960 H   0  0  0  0  0  0  0  0  0  0  0  0
  1  2  2  0
  2  3  1  0
  3  4  1  0
  4  5  1  0
  5  6  1  0
  6  7  1  0
  7  8  1  0
  8  9  1  0
  2 10  1  0
 10 11  2  0
 11 12  1  0
 12 13  2  0
 13 14  1  0
 14 15  1  0
 15 16  1  0
 16 17  2  0
 17 18  1  0
 18 19  2  0
 19 20  1  0
 20 21  1  0
 21 22  1  0
 22 23  1  0
 23 24  2  0
 24 25  1  0
 25 26  2  0
 26 27  1  0
 27 28  2  0
 28 29  1  0
 29 30  2  0
 30 31  1  0
 21 32  2  0
 32 33  1  0
 33 34  2  0
 13 35  1  0
 35 36  2  0
  9  4  1  0
 36 10  1  0
 34 16  1  0
 33 19  1  0
 31 23  1  0
 31 27  1  0
  3 37  1  0
  4 38  1  0
  5 39  1  0
  5 40  1  0
  6 41  1  0
  6 42  1  0
  7 43  1  0
  7 44  1  0
  8 45  1  0
  9 46  1  0
  9 47  1  0
 11 48  1  0
 12 49  1  0
 14 50  1  0
 17 51  1  0
 18 52  1  0
 20 53  1  0
 24 54  1  0
 25 55  1  0
 26 56  1  0
 30 57  1  0
 34 58  1  0
 35 59  1  0
 36 60  1  0
M  END
>  <Energy>  (720) 
79.461858750805391

>  <compound_id>  (720) 
2004

>  <target_id>  (720) 
1

>  <reference_id>  (720) 
62

>  <inspiration_ids>  (720) 
[32, 62]

>  <energy_score>  (720) 
-30.95143751886323

>  <distance_score>  (720) 
2.9286985657075384

>  <path>  (720) 
/opt/xchem-fragalysis-2/maxwin/BulkDock/SCRATCH/505732/C2004-P62/C2004-P62.minimised.mol

>  <scratch_subdir>  (720) 
/opt/xchem-fragalysis-2/maxwin/BulkDock/SCRATCH/505732/C2004-P62

>  <fragmenstein_runtime>  (720) 
44.16269564628601

>  <fragmenstein_outcome>  (720) 
too moved

>  <fragmenstein_mode>  (720) 
expansion

>  <fragmenstein_error>  (720) 


$$$$
C2006-P32
     RDKit          3D

 29 31  0  0  0  0  0  0  0  0999 V2000
  -11.6779  -21.6589   30.8039 C   0  0  0  0  0  0  0  0  0  0  0  0
  -10.9984  -22.6900   31.5452 N   0  0  0  0  0  0  0  0  0  0  0  0
  -10.4484  -22.4828   32.7738 C   0  0  0  0  0  0  0  0  0  0  0  0
   -9.8562  -23.6737   33.0887 C   0  0  0  0  0  0  0  0  0  0  0  0
  -10.0292  -24.6085   32.1058 N   0  0  0  0  0  0  0  0  0  0  0  0
  -10.7936  -24.0158   31.2141 C   0  0  0  0  0  0  0  0  0  0  0  0
  -11.4791  -24.7713   30.0107 C   0  0  0  0  0  0  0  0  0  0  0  0
  -11.1353  -26.0183   29.5680 N   0  0  0  0  0  0  0  0  0  0  0  0
  -11.4247  -25.8418   28.2943 C   0  0  0  0  0  0  0  0  0  0  0  0
  -10.2439  -25.4088   27.3621 C   0  0  0  0  0  0  0  0  0  0  0  0
   -9.0487  -24.8984   28.2339 C   0  0  0  0  0  0  0  0  0  0  0  0
   -9.5227  -23.4582   27.9690 C   0  0  0  0  0  0  0  0  0  0  0  0
  -10.3866  -23.9646   26.8002 C   0  0  0  0  0  0  0  0  0  0  0  0
  -12.5941  -25.1379   28.3265 N   0  0  0  0  0  0  0  0  0  0  0  0
  -13.4285  -24.8317   27.2858 O   0  0  0  0  0  0  0  0  0  0  0  0
  -12.4918  -24.2247   29.2915 N   0  0  0  0  0  0  0  0  0  0  0  0
  -10.9912  -21.2713   30.0485 H   0  0  0  0  0  0  0  0  0  0  0  0
  -12.5735  -22.0300   30.3167 H   0  0  0  0  0  0  0  0  0  0  0  0
  -11.9543  -20.8450   31.4807 H   0  0  0  0  0  0  0  0  0  0  0  0
  -10.5366  -21.5492   33.3108 H   0  0  0  0  0  0  0  0  0  0  0  0
   -9.3455  -23.8857   34.0091 H   0  0  0  0  0  0  0  0  0  0  0  0
   -9.9856  -26.1692   26.6230 H   0  0  0  0  0  0  0  0  0  0  0  0
   -8.0921  -25.2351   27.8540 H   0  0  0  0  0  0  0  0  0  0  0  0
   -8.9781  -25.1533   29.2945 H   0  0  0  0  0  0  0  0  0  0  0  0
  -10.1025  -22.9938   28.7640 H   0  0  0  0  0  0  0  0  0  0  0  0
   -8.7629  -22.7300   27.7234 H   0  0  0  0  0  0  0  0  0  0  0  0
  -11.3766  -23.5034   26.7544 H   0  0  0  0  0  0  0  0  0  0  0  0
   -9.9826  -23.8351   25.7953 H   0  0  0  0  0  0  0  0  0  0  0  0
  -14.0687  -24.3380   27.8215 H   0  0  0  0  0  0  0  0  0  0  0  0
  1  2  1  0
  2  3  1  0
  3  4  2  0
  4  5  1  0
  5  6  2  0
  6  7  1  0
  7  8  1  0
  8  9  2  0
  9 10  1  0
 10 11  1  0
 11 12  1  0
 12 13  1  0
  9 14  1  0
 14 15  1  0
 14 16  1  0
  6  2  1  0
 16  7  2  0
 13 10  1  0
  1 17  1  0
  1 18  1  0
  1 19  1  0
  3 20  1  0
  4 21  1  0
 10 22  1  0
 11 23  1  0
 11 24  1  0
 12 25  1  0
 12 26  1  0
 13 27  1  0
 13 28  1  0
 15 29  1  0
M  END
>  <Energy>  (721) 
64.266866541905571

>  <compound_id>  (721) 
2006

>  <target_id>  (721) 
1

>  <reference_id>  (721) 
32

>  <inspiration_ids>  (721) 
[32, 82]

>  <energy_score>  (721) 
9.273720575365019

>  <distance_score>  (721) 
2.1249596173587633

>  <path>  (721) 
/opt/xchem-fragalysis-2/maxwin/BulkDock/SCRATCH/505732/C2006-P32/C2006-P32.minimised.mol

>  <scratch_subdir>  (721) 
/opt/xchem-fragalysis-2/maxwin/BulkDock/SCRATCH/505732/C2006-P32

>  <fragmenstein_runtime>  (721) 
3.6112632751464844

>  <fragmenstein_outcome>  (721) 
too moved

>  <fragmenstein_mode>  (721) 
expansion

>  <fragmenstein_error>  (721) 


$$$$
C2006-P82
     RDKit          3D

 29 31  0  0  0  0  0  0  0  0999 V2000
  -12.8154  -22.6462   31.8389 C   0  0  0  0  0  0  0  0  0  0  0  0
  -11.9873  -23.6578   32.4465 N   0  0  0  0  0  0  0  0  0  0  0  0
  -12.1868  -24.1653   33.6805 C   0  0  0  0  0  0  0  0  0  0  0  0
  -11.1640  -25.0620   33.8563 C   0  0  0  0  0  0  0  0  0  0  0  0
  -10.3651  -25.1386   32.7651 N   0  0  0  0  0  0  0  0  0  0  0  0
  -11.0576  -24.4802   31.8683 C   0  0  0  0  0  0  0  0  0  0  0  0
  -11.1093  -24.8360   30.3961 C   0  0  0  0  0  0  0  0  0  0  0  0
  -10.3262  -25.7222   29.7083 N   0  0  0  0  0  0  0  0  0  0  0  0
  -11.0882  -25.9443   28.6639 C   0  0  0  0  0  0  0  0  0  0  0  0
  -10.5589  -25.9247   27.2580 C   0  0  0  0  0  0  0  0  0  0  0  0
  -10.5863  -24.4382   26.8438 C   0  0  0  0  0  0  0  0  0  0  0  0
  -11.6561  -24.7415   25.8180 C   0  0  0  0  0  0  0  0  0  0  0  0
  -11.4967  -26.2509   26.0865 C   0  0  0  0  0  0  0  0  0  0  0  0
  -12.3065  -25.4373   28.9194 N   0  0  0  0  0  0  0  0  0  0  0  0
  -13.3722  -25.3788   28.0837 O   0  0  0  0  0  0  0  0  0  0  0  0
  -12.1878  -24.4244   29.7326 N   0  0  0  0  0  0  0  0  0  0  0  0
  -12.2652  -22.1577   31.0315 H   0  0  0  0  0  0  0  0  0  0  0  0
  -13.7389  -23.1066   31.4838 H   0  0  0  0  0  0  0  0  0  0  0  0
  -13.0521  -21.8961   32.5995 H   0  0  0  0  0  0  0  0  0  0  0  0
  -13.0297  -23.8880   34.2857 H   0  0  0  0  0  0  0  0  0  0  0  0
  -10.9747  -25.6620   34.7255 H   0  0  0  0  0  0  0  0  0  0  0  0
   -9.6045  -26.4381   27.2147 H   0  0  0  0  0  0  0  0  0  0  0  0
   -9.6664  -24.1106   26.4130 H   0  0  0  0  0  0  0  0  0  0  0  0
  -10.8682  -23.6649   27.5650 H   0  0  0  0  0  0  0  0  0  0  0  0
  -12.6429  -24.3245   26.0351 H   0  0  0  0  0  0  0  0  0  0  0  0
  -11.3638  -24.4042   24.8228 H   0  0  0  0  0  0  0  0  0  0  0  0
  -11.0038  -26.7998   25.2797 H   0  0  0  0  0  0  0  0  0  0  0  0
  -12.4154  -26.7964   26.3202 H   0  0  0  0  0  0  0  0  0  0  0  0
  -13.7446  -24.6629   28.6421 H   0  0  0  0  0  0  0  0  0  0  0  0
  1  2  1  0
  2  3  1  0
  3  4  2  0
  4  5  1  0
  5  6  2  0
  6  7  1  0
  7  8  1  0
  8  9  2  0
  9 10  1  0
 10 11  1  0
 11 12  1  0
 12 13  1  0
  9 14  1  0
 14 15  1  0
 14 16  1  0
  6  2  1  0
 16  7  2  0
 13 10  1  0
  1 17  1  0
  1 18  1  0
  1 19  1  0
  3 20  1  0
  4 21  1  0
 10 22  1  0
 11 23  1  0
 11 24  1  0
 12 25  1  0
 12 26  1  0
 13 27  1  0
 13 28  1  0
 15 29  1  0
M  END
>  <Energy>  (722) 
60.327205030242581

>  <compound_id>  (722) 
2006

>  <target_id>  (722) 
1

>  <reference_id>  (722) 
82

>  <inspiration_ids>  (722) 
[32, 82]

>  <energy_score>  (722) 
5.334059063702938

>  <distance_score>  (722) 
2.615022873075903

>  <path>  (722) 
/opt/xchem-fragalysis-2/maxwin/BulkDock/SCRATCH/505732/C2006-P82/C2006-P82.minimised.mol

>  <scratch_subdir>  (722) 
/opt/xchem-fragalysis-2/maxwin/BulkDock/SCRATCH/505732/C2006-P82

>  <fragmenstein_runtime>  (722) 
3.6434247493743896

>  <fragmenstein_outcome>  (722) 
too moved

>  <fragmenstein_mode>  (722) 
expansion

>  <fragmenstein_error>  (722) 


$$$$
C2007-P32
     RDKit          3D

 66 69  0  0  0  0  0  0  0  0999 V2000
   -8.6237  -22.3129   32.5039 C   0  0  0  0  0  0  0  0  0  0  0  0
   -9.2819  -22.4785   31.2383 O   0  0  0  0  0  0  0  0  0  0  0  0
  -10.4907  -21.7432   30.8216 C   0  0  0  0  0  0  0  0  0  0  0  0
  -10.7510  -20.3771   31.5577 C   0  0  0  0  0  0  0  0  0  0  0  0
  -10.4726  -21.3662   29.4352 O   0  0  0  0  0  0  0  0  0  0  0  0
   -9.8658  -22.3565   28.6296 C   0  0  0  0  0  0  0  0  0  0  0  0
  -10.8054  -22.8883   27.6767 N   0  0  0  0  0  0  0  0  0  0  0  0
  -11.5231  -21.8539   26.9860 C   0  0  0  0  0  0  0  0  0  0  0  0
  -11.9115  -22.5308   25.6900 C   0  0  0  0  0  0  0  0  0  0  0  0
  -10.8281  -23.4747   25.4344 N   0  0  0  0  0  0  0  0  0  0  0  0
  -10.1828  -23.7200   26.7057 C   0  0  0  0  0  0  0  0  0  0  0  0
  -10.0557  -25.2533   26.9438 C   0  0  0  0  0  0  0  0  0  0  0  0
   -9.5053  -25.6817   28.2205 N   0  0  0  0  0  0  0  0  0  0  0  0
  -10.4423  -26.1972   29.2312 C   0  0  0  0  0  0  0  0  0  0  0  0
  -10.0142  -25.7178   30.6785 C   0  0  0  0  0  0  0  0  0  0  0  0
   -8.7831  -25.5682   31.5573 C   0  0  0  0  0  0  0  0  0  0  0  0
   -9.5853  -26.0144   32.7613 C   0  0  0  0  0  0  0  0  0  0  0  0
  -10.7060  -26.4694   31.8869 C   0  0  0  0  0  0  0  0  0  0  0  0
  -11.9043  -25.8817   28.9885 C   0  0  0  0  0  0  0  0  0  0  0  0
  -12.1938  -25.0449   30.1242 N   0  0  0  0  0  0  0  0  0  0  0  0
  -12.0958  -23.6726   29.8461 N   0  0  0  0  0  0  0  0  0  0  0  0
  -13.3069  -23.4581   29.0354 C   0  0  0  0  0  0  0  0  0  0  0  0
  -14.8110  -24.7937   29.3224 S   0  0  0  0  0  0  0  0  0  0  0  0
  -14.2818  -26.2247   28.6687 N   0  0  0  0  0  0  0  0  0  0  0  0
  -13.0472  -26.9361   29.1083 C   0  0  0  0  0  0  0  0  0  0  0  0
  -12.9572  -28.1900   28.2825 C   0  0  0  0  0  0  0  0  0  0  0  0
  -11.7009  -22.6242   31.0236 C   0  0  0  0  0  0  0  0  0  0  0  0
  -11.4410  -22.9321   32.5468 C   0  0  0  0  0  0  0  0  0  0  0  0
   -7.5669  -22.5301   32.3742 H   0  0  0  0  0  0  0  0  0  0  0  0
   -8.9246  -23.0670   33.2354 H   0  0  0  0  0  0  0  0  0  0  0  0
   -8.7305  -21.3139   32.9237 H   0  0  0  0  0  0  0  0  0  0  0  0
  -10.0550  -19.5927   31.2606 H   0  0  0  0  0  0  0  0  0  0  0  0
  -11.7336  -19.9838   31.2799 H   0  0  0  0  0  0  0  0  0  0  0  0
  -10.7143  -20.4303   32.6473 H   0  0  0  0  0  0  0  0  0  0  0  0
   -9.0196  -21.8626   28.1555 H   0  0  0  0  0  0  0  0  0  0  0  0
   -9.4149  -23.1660   29.1974 H   0  0  0  0  0  0  0  0  0  0  0  0
  -12.3677  -21.5917   27.6040 H   0  0  0  0  0  0  0  0  0  0  0  0
  -10.9732  -20.9247   26.8576 H   0  0  0  0  0  0  0  0  0  0  0  0
  -12.8521  -23.0838   25.7869 H   0  0  0  0  0  0  0  0  0  0  0  0
  -12.0084  -21.8379   24.8488 H   0  0  0  0  0  0  0  0  0  0  0  0
  -10.1567  -23.0287   24.8078 H   0  0  0  0  0  0  0  0  0  0  0  0
   -9.2079  -23.2783   26.6487 H   0  0  0  0  0  0  0  0  0  0  0  0
  -10.9632  -25.7917   26.6499 H   0  0  0  0  0  0  0  0  0  0  0  0
   -9.3693  -25.6529   26.2001 H   0  0  0  0  0  0  0  0  0  0  0  0
   -8.8906  -24.9833   28.6291 H   0  0  0  0  0  0  0  0  0  0  0  0
  -10.4546  -27.2740   29.1441 H   0  0  0  0  0  0  0  0  0  0  0  0
  -10.1857  -24.6447   30.6335 H   0  0  0  0  0  0  0  0  0  0  0  0
   -8.3750  -24.5675   31.6315 H   0  0  0  0  0  0  0  0  0  0  0  0
   -7.9323  -26.1715   31.3720 H   0  0  0  0  0  0  0  0  0  0  0  0
   -9.8529  -25.1899   33.4191 H   0  0  0  0  0  0  0  0  0  0  0  0
   -9.1596  -26.8239   33.3531 H   0  0  0  0  0  0  0  0  0  0  0  0
  -11.6380  -26.1265   32.2886 H   0  0  0  0  0  0  0  0  0  0  0  0
  -10.8526  -27.5501   31.8662 H   0  0  0  0  0  0  0  0  0  0  0  0
  -12.0896  -25.3845   28.0428 H   0  0  0  0  0  0  0  0  0  0  0  0
  -13.1656  -25.3205   30.3360 H   0  0  0  0  0  0  0  0  0  0  0  0
  -13.6554  -22.4958   29.3560 H   0  0  0  0  0  0  0  0  0  0  0  0
  -13.1288  -23.5763   27.9731 H   0  0  0  0  0  0  0  0  0  0  0  0
  -15.0536  -26.8933   28.6246 H   0  0  0  0  0  0  0  0  0  0  0  0
  -13.1699  -27.2771   30.1482 H   0  0  0  0  0  0  0  0  0  0  0  0
  -12.0711  -28.7638   28.5607 H   0  0  0  0  0  0  0  0  0  0  0  0
  -13.8184  -28.8444   28.4666 H   0  0  0  0  0  0  0  0  0  0  0  0
  -12.9721  -27.9416   27.2208 H   0  0  0  0  0  0  0  0  0  0  0  0
  -12.5213  -21.9156   30.9395 H   0  0  0  0  0  0  0  0  0  0  0  0
  -10.6313  -22.4428   33.0482 H   0  0  0  0  0  0  0  0  0  0  0  0
  -12.1315  -22.4297   33.2166 H   0  0  0  0  0  0  0  0  0  0  0  0
  -11.2883  -23.9794   32.7384 H   0  0  0  0  0  0  0  0  0  0  0  0
  1  2  1  0
  2  3  1  0
  3  4  1  0
  3  5  1  0
  5  6  1  0
  6  7  1  0
  7  8  1  0
  8  9  1  0
  9 10  1  0
 10 11  1  0
 11 12  1  0
 12 13  1  0
 13 14  1  0
 14 15  1  0
 15 16  1  0
 16 17  1  0
 17 18  1  0
 14 19  1  0
 19 20  1  0
 20 21  1  0
 21 22  1  0
 22 23  1  0
 23 24  1  0
 24 25  1  0
 25 26  1  0
 21 27  1  0
 27 28  1  0
 27  3  1  0
 11  7  1  0
 18 15  1  0
 25 19  1  0
  1 29  1  0
  1 30  1  0
  1 31  1  0
  4 32  1  0
  4 33  1  0
  4 34  1  0
  6 35  1  0
  6 36  1  0
  8 37  1  0
  8 38  1  0
  9 39  1  0
  9 40  1  0
 10 41  1  0
 11 42  1  0
 12 43  1  0
 12 44  1  0
 13 45  1  0
 14 46  1  0
 15 47  1  0
 16 48  1  0
 16 49  1  0
 17 50  1  0
 17 51  1  0
 18 52  1  0
 18 53  1  0
 19 54  1  0
 20 55  1  0
 22 56  1  0
 22 57  1  0
 24 58  1  0
 25 59  1  0
 26 60  1  0
 26 61  1  0
 26 62  1  0
 27 63  1  0
 28 64  1  0
 28 65  1  0
 28 66  1  0
M  END
>  <Energy>  (723) 
380.65112235237854

>  <compound_id>  (723) 
2007

>  <target_id>  (723) 
1

>  <reference_id>  (723) 
32

>  <inspiration_ids>  (723) 
[32, 88]

>  <energy_score>  (723) 
14.676019564353282

>  <distance_score>  (723) 
3.1384189765272383

>  <path>  (723) 
/opt/xchem-fragalysis-2/maxwin/BulkDock/SCRATCH/505732/C2007-P32/C2007-P32.minimised.mol

>  <scratch_subdir>  (723) 
/opt/xchem-fragalysis-2/maxwin/BulkDock/SCRATCH/505732/C2007-P32

>  <fragmenstein_runtime>  (723) 
15.393802881240845

>  <fragmenstein_outcome>  (723) 
too moved

>  <fragmenstein_mode>  (723) 
expansion

>  <fragmenstein_error>  (723) 


$$$$
C2007-P88
     RDKit          3D

 66 69  0  0  0  0  0  0  0  0999 V2000
  -13.3229  -19.7722   32.7019 C   0  0  0  0  0  0  0  0  0  0  0  0
  -13.2110  -20.1068   31.3207 O   0  0  0  0  0  0  0  0  0  0  0  0
  -12.0614  -20.8157   30.7661 C   0  0  0  0  0  0  0  0  0  0  0  0
  -10.8696  -19.9257   31.0014 C   0  0  0  0  0  0  0  0  0  0  0  0
  -12.2655  -21.0384   29.3305 O   0  0  0  0  0  0  0  0  0  0  0  0
  -11.1658  -21.3543   28.4729 C   0  0  0  0  0  0  0  0  0  0  0  0
  -11.3146  -22.4473   27.5232 N   0  0  0  0  0  0  0  0  0  0  0  0
  -12.2903  -22.5552   26.4625 C   0  0  0  0  0  0  0  0  0  0  0  0
  -12.3266  -24.0349   26.1848 C   0  0  0  0  0  0  0  0  0  0  0  0
  -10.9335  -24.3971   26.4634 N   0  0  0  0  0  0  0  0  0  0  0  0
  -10.8367  -23.7673   27.8017 C   0  0  0  0  0  0  0  0  0  0  0  0
   -9.5180  -23.8167   28.5602 C   0  0  0  0  0  0  0  0  0  0  0  0
   -9.2017  -23.6375   29.9913 N   0  0  0  0  0  0  0  0  0  0  0  0
   -9.3900  -24.8788   30.8399 C   0  0  0  0  0  0  0  0  0  0  0  0
   -9.1840  -24.5183   32.3310 C   0  0  0  0  0  0  0  0  0  0  0  0
   -8.2130  -25.0682   33.4092 C   0  0  0  0  0  0  0  0  0  0  0  0
   -8.3257  -23.6331   34.0261 C   0  0  0  0  0  0  0  0  0  0  0  0
   -8.4709  -23.1594   32.5997 C   0  0  0  0  0  0  0  0  0  0  0  0
  -10.8084  -25.4484   30.5531 C   0  0  0  0  0  0  0  0  0  0  0  0
  -11.5514  -24.4279   31.2507 N   0  0  0  0  0  0  0  0  0  0  0  0
  -11.9139  -23.3537   30.4973 N   0  0  0  0  0  0  0  0  0  0  0  0
  -13.1243  -23.6838   29.6906 C   0  0  0  0  0  0  0  0  0  0  0  0
  -13.7032  -25.5067   29.3566 S   0  0  0  0  0  0  0  0  0  0  0  0
  -13.1136  -26.4229   30.6538 N   0  0  0  0  0  0  0  0  0  0  0  0
  -11.6429  -26.7661   30.7571 C   0  0  0  0  0  0  0  0  0  0  0  0
  -11.4659  -27.8853   29.7025 C   0  0  0  0  0  0  0  0  0  0  0  0
  -12.0972  -22.1876   31.4293 C   0  0  0  0  0  0  0  0  0  0  0  0
  -11.4962  -22.1447   32.8689 C   0  0  0  0  0  0  0  0  0  0  0  0
  -13.7198  -20.5801   33.3019 H   0  0  0  0  0  0  0  0  0  0  0  0
  -14.0706  -18.9773   32.7874 H   0  0  0  0  0  0  0  0  0  0  0  0
  -12.3952  -19.4063   33.1438 H   0  0  0  0  0  0  0  0  0  0  0  0
  -10.5461  -19.4260   30.0894 H   0  0  0  0  0  0  0  0  0  0  0  0
  -10.0824  -20.5541   31.3726 H   0  0  0  0  0  0  0  0  0  0  0  0
  -10.9924  -19.1478   31.7542 H   0  0  0  0  0  0  0  0  0  0  0  0
  -10.9652  -20.4626   27.8889 H   0  0  0  0  0  0  0  0  0  0  0  0
  -10.2772  -21.4837   29.0718 H   0  0  0  0  0  0  0  0  0  0  0  0
  -13.3264  -22.3501   26.6859 H   0  0  0  0  0  0  0  0  0  0  0  0
  -11.9656  -22.0184   25.5644 H   0  0  0  0  0  0  0  0  0  0  0  0
  -13.0024  -24.5833   26.8452 H   0  0  0  0  0  0  0  0  0  0  0  0
  -12.7878  -24.1882   25.2265 H   0  0  0  0  0  0  0  0  0  0  0  0
  -10.3480  -23.8195   25.8586 H   0  0  0  0  0  0  0  0  0  0  0  0
  -11.5173  -24.3812   28.3316 H   0  0  0  0  0  0  0  0  0  0  0  0
   -9.0387  -24.7499   28.2686 H   0  0  0  0  0  0  0  0  0  0  0  0
   -9.1010  -22.9011   28.1508 H   0  0  0  0  0  0  0  0  0  0  0  0
   -8.2271  -23.3674   30.0743 H   0  0  0  0  0  0  0  0  0  0  0  0
   -8.5702  -25.4742   30.5232 H   0  0  0  0  0  0  0  0  0  0  0  0
  -10.1331  -24.6333   32.8576 H   0  0  0  0  0  0  0  0  0  0  0  0
   -8.6161  -25.8708   34.0322 H   0  0  0  0  0  0  0  0  0  0  0  0
   -7.2185  -25.3509   33.0706 H   0  0  0  0  0  0  0  0  0  0  0  0
   -7.4737  -23.1581   34.4916 H   0  0  0  0  0  0  0  0  0  0  0  0
   -9.2078  -23.4730   34.6567 H   0  0  0  0  0  0  0  0  0  0  0  0
   -7.5064  -23.0373   32.1108 H   0  0  0  0  0  0  0  0  0  0  0  0
   -9.0030  -22.2328   32.4480 H   0  0  0  0  0  0  0  0  0  0  0  0
  -10.8441  -25.4680   29.4815 H   0  0  0  0  0  0  0  0  0  0  0  0
  -12.3228  -24.8001   31.7470 H   0  0  0  0  0  0  0  0  0  0  0  0
  -13.9566  -23.0616   29.9780 H   0  0  0  0  0  0  0  0  0  0  0  0
  -13.0312  -23.3522   28.6852 H   0  0  0  0  0  0  0  0  0  0  0  0
  -13.6476  -27.2950   30.7013 H   0  0  0  0  0  0  0  0  0  0  0  0
  -11.5093  -27.1594   31.7702 H   0  0  0  0  0  0  0  0  0  0  0  0
  -12.3016  -28.5967   29.7322 H   0  0  0  0  0  0  0  0  0  0  0  0
  -10.5895  -28.5091   29.8529 H   0  0  0  0  0  0  0  0  0  0  0  0
  -11.4200  -27.4826   28.6847 H   0  0  0  0  0  0  0  0  0  0  0  0
  -13.1412  -22.2515   31.6331 H   0  0  0  0  0  0  0  0  0  0  0  0
  -12.2243  -21.8064   33.6051 H   0  0  0  0  0  0  0  0  0  0  0  0
  -11.2172  -23.1107   33.2621 H   0  0  0  0  0  0  0  0  0  0  0  0
  -10.6632  -21.4631   33.0072 H   0  0  0  0  0  0  0  0  0  0  0  0
  1  2  1  0
  2  3  1  0
  3  4  1  0
  3  5  1  0
  5  6  1  0
  6  7  1  0
  7  8  1  0
  8  9  1  0
  9 10  1  0
 10 11  1  0
 11 12  1  0
 12 13  1  0
 13 14  1  0
 14 15  1  0
 15 16  1  0
 16 17  1  0
 17 18  1  0
 14 19  1  0
 19 20  1  0
 20 21  1  0
 21 22  1  0
 22 23  1  0
 23 24  1  0
 24 25  1  0
 25 26  1  0
 21 27  1  0
 27 28  1  0
 27  3  1  0
 11  7  1  0
 18 15  1  0
 25 19  1  0
  1 29  1  0
  1 30  1  0
  1 31  1  0
  4 32  1  0
  4 33  1  0
  4 34  1  0
  6 35  1  0
  6 36  1  0
  8 37  1  0
  8 38  1  0
  9 39  1  0
  9 40  1  0
 10 41  1  0
 11 42  1  0
 12 43  1  0
 12 44  1  0
 13 45  1  0
 14 46  1  0
 15 47  1  0
 16 48  1  0
 16 49  1  0
 17 50  1  0
 17 51  1  0
 18 52  1  0
 18 53  1  0
 19 54  1  0
 20 55  1  0
 22 56  1  0
 22 57  1  0
 24 58  1  0
 25 59  1  0
 26 60  1  0
 26 61  1  0
 26 62  1  0
 27 63  1  0
 28 64  1  0
 28 65  1  0
 28 66  1  0
M  END
>  <Energy>  (724) 
378.24681222909118

>  <compound_id>  (724) 
2007

>  <target_id>  (724) 
1

>  <reference_id>  (724) 
88

>  <inspiration_ids>  (724) 
[32, 88]

>  <energy_score>  (724) 
12.27170944106956

>  <distance_score>  (724) 
2.787159143403052

>  <path>  (724) 
/opt/xchem-fragalysis-2/maxwin/BulkDock/SCRATCH/505732/C2007-P88/C2007-P88.minimised.mol

>  <scratch_subdir>  (724) 
/opt/xchem-fragalysis-2/maxwin/BulkDock/SCRATCH/505732/C2007-P88

>  <fragmenstein_runtime>  (724) 
11.257563591003418

>  <fragmenstein_outcome>  (724) 
too moved

>  <fragmenstein_mode>  (724) 
expansion

>  <fragmenstein_error>  (724) 


$$$$
C2008-P32
     RDKit          3D

 42 45  0  0  0  0  0  0  0  0999 V2000
  -15.1784  -26.4008   27.6379 C   0  0  0  0  0  0  0  0  0  0  0  0
  -13.8147  -27.0836   27.4374 C   0  0  0  0  0  0  0  0  0  0  0  0
  -13.2907  -25.7307   26.8772 C   0  0  0  0  0  0  0  0  0  0  0  0
  -11.8349  -25.3868   27.1345 C   0  0  0  0  0  0  0  0  0  0  0  0
  -11.4754  -25.4183   28.5250 N   0  0  0  0  0  0  0  0  0  0  0  0
  -10.2501  -24.6143   28.5286 C   0  0  0  0  0  0  0  0  0  0  0  0
   -9.7602  -24.1575   29.9601 C   0  0  0  0  0  0  0  0  0  0  0  0
   -9.2110  -25.3810   30.5070 N   0  0  0  0  0  0  0  0  0  0  0  0
   -9.0432  -25.1079   31.9044 C   0  0  0  0  0  0  0  0  0  0  0  0
  -10.3512  -24.4600   32.2205 C   0  0  0  0  0  0  0  0  0  0  0  0
  -10.7502  -23.7667   30.9775 N   0  0  0  0  0  0  0  0  0  0  0  0
  -10.8282  -22.3380   31.2655 C   0  0  0  0  0  0  0  0  0  0  0  0
  -11.5218  -21.4642   30.2230 C   0  0  0  0  0  0  0  0  0  0  0  0
  -11.8356  -22.1230   28.8898 C   0  0  0  0  0  0  0  0  0  0  0  0
  -10.6504  -22.2834   27.9623 C   0  0  0  0  0  0  0  0  0  0  0  0
  -10.3816  -23.6222   27.4646 N   0  0  0  0  0  0  0  0  0  0  0  0
  -11.5471  -24.0604   26.6811 O   0  0  0  0  0  0  0  0  0  0  0  0
  -14.4269  -25.0576   27.6885 C   0  0  0  0  0  0  0  0  0  0  0  0
  -15.8496  -26.4975   26.7768 H   0  0  0  0  0  0  0  0  0  0  0  0
  -15.7203  -26.6766   28.5459 H   0  0  0  0  0  0  0  0  0  0  0  0
  -13.3562  -27.4147   28.3757 H   0  0  0  0  0  0  0  0  0  0  0  0
  -13.8158  -27.9193   26.7334 H   0  0  0  0  0  0  0  0  0  0  0  0
  -13.4892  -25.6582   25.7959 H   0  0  0  0  0  0  0  0  0  0  0  0
  -11.1996  -26.0676   26.5551 H   0  0  0  0  0  0  0  0  0  0  0  0
  -11.2469  -26.3401   28.8785 H   0  0  0  0  0  0  0  0  0  0  0  0
   -9.4558  -25.2692   28.1354 H   0  0  0  0  0  0  0  0  0  0  0  0
   -8.9459  -23.4265   29.8704 H   0  0  0  0  0  0  0  0  0  0  0  0
   -8.3324  -25.6195   30.0653 H   0  0  0  0  0  0  0  0  0  0  0  0
   -8.9258  -26.0387   32.4532 H   0  0  0  0  0  0  0  0  0  0  0  0
   -8.2085  -24.4188   32.0637 H   0  0  0  0  0  0  0  0  0  0  0  0
  -11.0735  -25.2483   32.4430 H   0  0  0  0  0  0  0  0  0  0  0  0
  -10.2585  -23.8143   33.1004 H   0  0  0  0  0  0  0  0  0  0  0  0
  -11.4055  -22.1893   32.1885 H   0  0  0  0  0  0  0  0  0  0  0  0
   -9.8432  -21.9508   31.5291 H   0  0  0  0  0  0  0  0  0  0  0  0
  -12.4701  -21.1228   30.6521 H   0  0  0  0  0  0  0  0  0  0  0  0
  -10.9417  -20.5489   30.0573 H   0  0  0  0  0  0  0  0  0  0  0  0
  -12.4812  -21.4588   28.3411 H   0  0  0  0  0  0  0  0  0  0  0  0
  -12.4299  -23.0270   29.0322 H   0  0  0  0  0  0  0  0  0  0  0  0
   -9.7382  -21.8727   28.4070 H   0  0  0  0  0  0  0  0  0  0  0  0
  -10.8486  -21.6492   27.0950 H   0  0  0  0  0  0  0  0  0  0  0  0
  -14.9404  -24.2475   27.1696 H   0  0  0  0  0  0  0  0  0  0  0  0
  -14.1629  -24.7430   28.7025 H   0  0  0  0  0  0  0  0  0  0  0  0
  1  2  1  0
  2  3  1  0
  3  4  1  0
  4  5  1  0
  5  6  1  0
  6  7  1  0
  7  8  1  0
  8  9  1  0
  9 10  1  0
 10 11  1  0
 11 12  1  0
 12 13  1  0
 13 14  1  0
 14 15  1  0
 15 16  1  0
 16 17  1  0
  3 18  1  0
 18  1  1  0
 17  4  1  0
 16  6  1  0
 11  7  1  0
  1 19  1  0
  1 20  1  0
  2 21  1  0
  2 22  1  0
  3 23  1  0
  4 24  1  0
  5 25  1  0
  6 26  1  0
  7 27  1  0
  8 28  1  0
  9 29  1  0
  9 30  1  0
 10 31  1  0
 10 32  1  0
 12 33  1  0
 12 34  1  0
 13 35  1  0
 13 36  1  0
 14 37  1  0
 14 38  1  0
 15 39  1  0
 15 40  1  0
 18 41  1  0
 18 42  1  0
M  END
>  <Energy>  (725) 
98.47998600211848

>  <compound_id>  (725) 
2008

>  <target_id>  (725) 
1

>  <reference_id>  (725) 
32

>  <inspiration_ids>  (725) 
[32, 94]

>  <energy_score>  (725) 
-26.607113485245748

>  <distance_score>  (725) 
2.9869246150703854

>  <path>  (725) 
/opt/xchem-fragalysis-2/maxwin/BulkDock/SCRATCH/505732/C2008-P32/C2008-P32.minimised.mol

>  <scratch_subdir>  (725) 
/opt/xchem-fragalysis-2/maxwin/BulkDock/SCRATCH/505732/C2008-P32

>  <fragmenstein_runtime>  (725) 
11.756651878356934

>  <fragmenstein_outcome>  (725) 
too moved

>  <fragmenstein_mode>  (725) 
expansion

>  <fragmenstein_error>  (725) 


$$$$
C2008-P94
     RDKit          3D

 42 45  0  0  0  0  0  0  0  0999 V2000
  -13.0468  -25.0062   25.8752 C   0  0  0  0  0  0  0  0  0  0  0  0
  -13.1574  -25.9844   27.0411 C   0  0  0  0  0  0  0  0  0  0  0  0
  -11.6817  -26.3530   26.8636 C   0  0  0  0  0  0  0  0  0  0  0  0
  -10.5950  -25.7770   27.7132 C   0  0  0  0  0  0  0  0  0  0  0  0
  -10.7625  -26.0874   29.1085 N   0  0  0  0  0  0  0  0  0  0  0  0
  -10.0496  -24.9416   29.6941 C   0  0  0  0  0  0  0  0  0  0  0  0
   -9.8529  -24.8482   31.2871 C   0  0  0  0  0  0  0  0  0  0  0  0
   -9.9131  -26.2449   31.6599 N   0  0  0  0  0  0  0  0  0  0  0  0
  -11.0873  -26.3764   32.4652 C   0  0  0  0  0  0  0  0  0  0  0  0
  -11.7782  -25.0452   32.4320 C   0  0  0  0  0  0  0  0  0  0  0  0
  -10.6658  -24.1741   32.2758 N   0  0  0  0  0  0  0  0  0  0  0  0
  -11.0506  -22.7941   32.3175 C   0  0  0  0  0  0  0  0  0  0  0  0
  -12.1509  -22.2281   31.4594 C   0  0  0  0  0  0  0  0  0  0  0  0
  -11.7758  -22.0190   30.0033 C   0  0  0  0  0  0  0  0  0  0  0  0
  -11.7766  -23.2693   29.1449 C   0  0  0  0  0  0  0  0  0  0  0  0
  -10.4689  -23.8160   28.8715 N   0  0  0  0  0  0  0  0  0  0  0  0
  -10.5282  -24.3737   27.5393 O   0  0  0  0  0  0  0  0  0  0  0  0
  -11.7593  -25.7292   25.4746 C   0  0  0  0  0  0  0  0  0  0  0  0
  -12.8861  -23.9647   26.1644 H   0  0  0  0  0  0  0  0  0  0  0  0
  -13.8658  -25.0507   25.1528 H   0  0  0  0  0  0  0  0  0  0  0  0
  -13.8715  -26.7937   26.8692 H   0  0  0  0  0  0  0  0  0  0  0  0
  -13.3526  -25.5536   27.9983 H   0  0  0  0  0  0  0  0  0  0  0  0
  -11.5277  -27.4326   26.8565 H   0  0  0  0  0  0  0  0  0  0  0  0
   -9.6403  -26.1977   27.4024 H   0  0  0  0  0  0  0  0  0  0  0  0
  -11.7180  -25.9712   29.4103 H   0  0  0  0  0  0  0  0  0  0  0  0
   -9.0060  -25.1196   29.3913 H   0  0  0  0  0  0  0  0  0  0  0  0
   -8.8275  -24.5608   31.4943 H   0  0  0  0  0  0  0  0  0  0  0  0
   -9.1015  -26.5344   32.2121 H   0  0  0  0  0  0  0  0  0  0  0  0
  -10.7716  -26.5960   33.4893 H   0  0  0  0  0  0  0  0  0  0  0  0
  -11.7010  -27.1788   32.0542 H   0  0  0  0  0  0  0  0  0  0  0  0
  -12.3555  -24.9523   31.5303 H   0  0  0  0  0  0  0  0  0  0  0  0
  -12.3652  -24.8348   33.3288 H   0  0  0  0  0  0  0  0  0  0  0  0
  -11.3898  -22.6206   33.3475 H   0  0  0  0  0  0  0  0  0  0  0  0
  -10.1960  -22.1427   32.2036 H   0  0  0  0  0  0  0  0  0  0  0  0
  -12.3695  -21.2554   31.9014 H   0  0  0  0  0  0  0  0  0  0  0  0
  -13.0769  -22.7772   31.5639 H   0  0  0  0  0  0  0  0  0  0  0  0
  -10.8441  -21.4571   29.9160 H   0  0  0  0  0  0  0  0  0  0  0  0
  -12.5191  -21.3568   29.5606 H   0  0  0  0  0  0  0  0  0  0  0  0
  -12.4494  -24.0153   29.5578 H   0  0  0  0  0  0  0  0  0  0  0  0
  -12.1917  -22.9458   28.1835 H   0  0  0  0  0  0  0  0  0  0  0  0
  -11.9086  -26.4890   24.7061 H   0  0  0  0  0  0  0  0  0  0  0  0
  -10.9503  -25.0676   25.1601 H   0  0  0  0  0  0  0  0  0  0  0  0
  1  2  1  0
  2  3  1  0
  3  4  1  0
  4  5  1  0
  5  6  1  0
  6  7  1  0
  7  8  1  0
  8  9  1  0
  9 10  1  0
 10 11  1  0
 11 12  1  0
 12 13  1  0
 13 14  1  0
 14 15  1  0
 15 16  1  0
 16 17  1  0
  3 18  1  0
 18  1  1  0
 17  4  1  0
 16  6  1  0
 11  7  1  0
  1 19  1  0
  1 20  1  0
  2 21  1  0
  2 22  1  0
  3 23  1  0
  4 24  1  0
  5 25  1  0
  6 26  1  0
  7 27  1  0
  8 28  1  0
  9 29  1  0
  9 30  1  0
 10 31  1  0
 10 32  1  0
 12 33  1  0
 12 34  1  0
 13 35  1  0
 13 36  1  0
 14 37  1  0
 14 38  1  0
 15 39  1  0
 15 40  1  0
 18 41  1  0
 18 42  1  0
M  END
>  <Energy>  (726) 
114.61428031622958

>  <compound_id>  (726) 
2008

>  <target_id>  (726) 
1

>  <reference_id>  (726) 
94

>  <inspiration_ids>  (726) 
[32, 94]

>  <energy_score>  (726) 
-18.693305568137447

>  <distance_score>  (726) 
2.7902392805182843

>  <path>  (726) 
/opt/xchem-fragalysis-2/maxwin/BulkDock/SCRATCH/505732/C2008-P94/C2008-P94.minimised.mol

>  <scratch_subdir>  (726) 
/opt/xchem-fragalysis-2/maxwin/BulkDock/SCRATCH/505732/C2008-P94

>  <fragmenstein_runtime>  (726) 
9.684646129608154

>  <fragmenstein_outcome>  (726) 
too moved

>  <fragmenstein_mode>  (726) 
expansion

>  <fragmenstein_error>  (726) 


$$$$
C2009-P32
     RDKit          3D

 47 51  0  0  0  0  0  0  0  0999 V2000
   -9.8367  -25.7123   27.4989 C   0  0  0  0  0  0  0  0  0  0  0  0
  -10.9521  -24.8252   27.3676 N   0  0  0  0  0  0  0  0  0  0  0  0
  -12.0298  -25.1020   26.5834 C   0  0  0  0  0  0  0  0  0  0  0  0
  -12.8418  -24.0070   26.7002 C   0  0  0  0  0  0  0  0  0  0  0  0
  -12.3230  -23.1177   27.5916 N   0  0  0  0  0  0  0  0  0  0  0  0
  -11.1869  -23.6390   28.0009 C   0  0  0  0  0  0  0  0  0  0  0  0
  -10.2895  -22.9886   28.9843 C   0  0  0  0  0  0  0  0  0  0  0  0
  -10.8216  -21.5931   29.3318 N   0  0  0  0  0  0  0  0  0  0  0  0
  -11.7277  -21.8394   30.4741 C   0  0  0  0  0  0  0  0  0  0  0  0
  -11.5495  -21.0350   31.7852 C   0  0  0  0  0  0  0  0  0  0  0  0
  -12.6552  -20.1884   32.5196 C   0  0  0  0  0  0  0  0  0  0  0  0
  -11.5354  -19.3006   33.0327 C   0  0  0  0  0  0  0  0  0  0  0  0
  -10.7191  -19.7485   31.8199 C   0  0  0  0  0  0  0  0  0  0  0  0
  -11.5470  -23.2082   30.8255 O   0  0  0  0  0  0  0  0  0  0  0  0
  -10.2843  -23.6790   30.3409 C   0  0  0  0  0  0  0  0  0  0  0  0
  -10.2091  -25.1884   30.6338 C   0  0  0  0  0  0  0  0  0  0  0  0
  -10.2176  -25.5188   32.1664 C   0  0  0  0  0  0  0  0  0  0  0  0
   -9.7432  -24.3687   32.9496 C   0  0  0  0  0  0  0  0  0  0  0  0
   -9.7311  -24.1605   34.2817 N   0  0  0  0  0  0  0  0  0  0  0  0
   -9.4903  -22.8629   34.5605 C   0  0  0  0  0  0  0  0  0  0  0  0
   -8.8781  -22.3448   33.4601 C   0  0  0  0  0  0  0  0  0  0  0  0
   -9.1247  -23.2800   32.4572 C   0  0  0  0  0  0  0  0  0  0  0  0
   -9.0912  -23.0896   31.0514 C   0  0  0  0  0  0  0  0  0  0  0  0
   -9.5435  -26.0587   26.5078 H   0  0  0  0  0  0  0  0  0  0  0  0
  -10.1979  -26.5521   28.0899 H   0  0  0  0  0  0  0  0  0  0  0  0
   -8.9977  -25.2132   27.9817 H   0  0  0  0  0  0  0  0  0  0  0  0
  -12.1244  -26.0087   26.0018 H   0  0  0  0  0  0  0  0  0  0  0  0
  -13.7795  -23.8222   26.1913 H   0  0  0  0  0  0  0  0  0  0  0  0
   -9.2930  -22.8778   28.5419 H   0  0  0  0  0  0  0  0  0  0  0  0
  -11.4007  -21.3326   28.5263 H   0  0  0  0  0  0  0  0  0  0  0  0
  -12.7577  -21.7379   30.1333 H   0  0  0  0  0  0  0  0  0  0  0  0
  -11.2091  -21.7403   32.5498 H   0  0  0  0  0  0  0  0  0  0  0  0
  -13.1490  -20.6147   33.3949 H   0  0  0  0  0  0  0  0  0  0  0  0
  -13.4198  -19.7570   31.8816 H   0  0  0  0  0  0  0  0  0  0  0  0
  -11.1693  -19.6904   33.9878 H   0  0  0  0  0  0  0  0  0  0  0  0
  -11.7063  -18.2368   33.1720 H   0  0  0  0  0  0  0  0  0  0  0  0
   -9.6749  -19.8696   32.0565 H   0  0  0  0  0  0  0  0  0  0  0  0
  -10.8075  -19.1710   30.9067 H   0  0  0  0  0  0  0  0  0  0  0  0
  -11.0425  -25.7282   30.1719 H   0  0  0  0  0  0  0  0  0  0  0  0
   -9.2770  -25.5712   30.2114 H   0  0  0  0  0  0  0  0  0  0  0  0
   -9.5889  -26.3872   32.3644 H   0  0  0  0  0  0  0  0  0  0  0  0
  -11.2221  -25.8058   32.4695 H   0  0  0  0  0  0  0  0  0  0  0  0
   -9.8174  -24.8866   34.9674 H   0  0  0  0  0  0  0  0  0  0  0  0
   -9.7380  -22.4658   35.5215 H   0  0  0  0  0  0  0  0  0  0  0  0
   -8.4738  -21.3541   33.3309 H   0  0  0  0  0  0  0  0  0  0  0  0
   -9.3189  -22.0701   31.1201 H   0  0  0  0  0  0  0  0  0  0  0  0
   -8.1356  -23.3315   30.5937 H   0  0  0  0  0  0  0  0  0  0  0  0
  1  2  1  0
  2  3  1  0
  3  4  2  0
  4  5  1  0
  5  6  2  0
  6  7  1  0
  7  8  1  0
  8  9  1  0
  9 10  1  0
 10 11  1  0
 11 12  1  0
 12 13  1  0
  9 14  1  0
 14 15  1  0
 15 16  1  0
 16 17  1  0
 17 18  1  0
 18 19  1  0
 19 20  1  0
 20 21  2  0
 21 22  1  0
 22 23  1  0
  6  2  1  0
 15  7  1  0
 22 18  2  0
 13 10  1  0
 23 15  1  0
  1 24  1  0
  1 25  1  0
  1 26  1  0
  3 27  1  0
  4 28  1  0
  7 29  1  0
  8 30  1  0
  9 31  1  0
 10 32  1  0
 11 33  1  0
 11 34  1  0
 12 35  1  0
 12 36  1  0
 13 37  1  0
 13 38  1  0
 16 39  1  0
 16 40  1  0
 17 41  1  0
 17 42  1  0
 19 43  1  0
 20 44  1  0
 21 45  1  0
 23 46  1  0
 23 47  1  0
M  END
>  <Energy>  (727) 
103.98690924986312

>  <compound_id>  (727) 
2009

>  <target_id>  (727) 
1

>  <reference_id>  (727) 
32

>  <inspiration_ids>  (727) 
[32, 96]

>  <energy_score>  (727) 
4.586805060127119

>  <distance_score>  (727) 
2.1642302184674156

>  <path>  (727) 
/opt/xchem-fragalysis-2/maxwin/BulkDock/SCRATCH/505732/C2009-P32/C2009-P32.minimised.mol

>  <scratch_subdir>  (727) 
/opt/xchem-fragalysis-2/maxwin/BulkDock/SCRATCH/505732/C2009-P32

>  <fragmenstein_runtime>  (727) 
9.369495868682861

>  <fragmenstein_outcome>  (727) 
too moved

>  <fragmenstein_mode>  (727) 
expansion

>  <fragmenstein_error>  (727) 


$$$$
C2009-P96
     RDKit          3D

 47 51  0  0  0  0  0  0  0  0999 V2000
  -12.6601  -27.3478   28.2832 C   0  0  0  0  0  0  0  0  0  0  0  0
  -13.0006  -26.1906   27.4995 N   0  0  0  0  0  0  0  0  0  0  0  0
  -14.1260  -26.1334   26.7189 C   0  0  0  0  0  0  0  0  0  0  0  0
  -14.0787  -24.9135   26.0992 C   0  0  0  0  0  0  0  0  0  0  0  0
  -12.9585  -24.2365   26.4755 N   0  0  0  0  0  0  0  0  0  0  0  0
  -12.3252  -25.0031   27.3505 C   0  0  0  0  0  0  0  0  0  0  0  0
  -11.0271  -24.5884   27.9952 C   0  0  0  0  0  0  0  0  0  0  0  0
  -10.8602  -23.0581   27.8519 N   0  0  0  0  0  0  0  0  0  0  0  0
  -11.6790  -22.5458   28.9613 C   0  0  0  0  0  0  0  0  0  0  0  0
  -11.1169  -21.6319   30.0125 C   0  0  0  0  0  0  0  0  0  0  0  0
  -12.0760  -21.1668   31.1881 C   0  0  0  0  0  0  0  0  0  0  0  0
  -10.9653  -20.1454   31.4568 C   0  0  0  0  0  0  0  0  0  0  0  0
  -10.8949  -20.1330   29.8893 C   0  0  0  0  0  0  0  0  0  0  0  0
  -11.9484  -23.6500   29.7526 O   0  0  0  0  0  0  0  0  0  0  0  0
  -10.9054  -24.6373   29.5078 C   0  0  0  0  0  0  0  0  0  0  0  0
   -9.3172  -24.3538   29.7832 C   0  0  0  0  0  0  0  0  0  0  0  0
   -8.7635  -24.4855   31.2211 C   0  0  0  0  0  0  0  0  0  0  0  0
   -9.8719  -24.2922   32.1387 C   0  0  0  0  0  0  0  0  0  0  0  0
   -9.8978  -23.4459   33.1995 N   0  0  0  0  0  0  0  0  0  0  0  0
  -11.2123  -23.1959   33.4835 C   0  0  0  0  0  0  0  0  0  0  0  0
  -11.9945  -23.9545   32.6192 C   0  0  0  0  0  0  0  0  0  0  0  0
  -11.1266  -24.7645   31.8502 C   0  0  0  0  0  0  0  0  0  0  0  0
  -11.3776  -25.5929   30.5957 C   0  0  0  0  0  0  0  0  0  0  0  0
  -11.5952  -27.3423   28.5160 H   0  0  0  0  0  0  0  0  0  0  0  0
  -12.8989  -28.2478   27.7094 H   0  0  0  0  0  0  0  0  0  0  0  0
  -13.2640  -27.3399   29.1928 H   0  0  0  0  0  0  0  0  0  0  0  0
  -14.8423  -26.9405   26.6664 H   0  0  0  0  0  0  0  0  0  0  0  0
  -14.7868  -24.4868   25.4011 H   0  0  0  0  0  0  0  0  0  0  0  0
  -10.2080  -25.0913   27.4717 H   0  0  0  0  0  0  0  0  0  0  0  0
  -11.3616  -22.8179   26.9843 H   0  0  0  0  0  0  0  0  0  0  0  0
  -12.6078  -22.1483   28.5923 H   0  0  0  0  0  0  0  0  0  0  0  0
  -10.2472  -22.1220   30.4507 H   0  0  0  0  0  0  0  0  0  0  0  0
  -12.3284  -21.7806   32.0262 H   0  0  0  0  0  0  0  0  0  0  0  0
  -13.0357  -20.7466   30.8978 H   0  0  0  0  0  0  0  0  0  0  0  0
  -10.0938  -20.5655   31.9726 H   0  0  0  0  0  0  0  0  0  0  0  0
  -11.2403  -19.2740   32.0370 H   0  0  0  0  0  0  0  0  0  0  0  0
  -11.7213  -19.6399   29.3736 H   0  0  0  0  0  0  0  0  0  0  0  0
   -9.9723  -19.8442   29.4269 H   0  0  0  0  0  0  0  0  0  0  0  0
   -8.7476  -25.0754   29.1818 H   0  0  0  0  0  0  0  0  0  0  0  0
   -9.0102  -23.3745   29.4054 H   0  0  0  0  0  0  0  0  0  0  0  0
   -7.9606  -23.7625   31.3886 H   0  0  0  0  0  0  0  0  0  0  0  0
   -8.3684  -25.4906   31.3818 H   0  0  0  0  0  0  0  0  0  0  0  0
   -9.1032  -22.9628   33.5988 H   0  0  0  0  0  0  0  0  0  0  0  0
  -11.4863  -22.4751   34.2445 H   0  0  0  0  0  0  0  0  0  0  0  0
  -13.0724  -23.9078   32.5309 H   0  0  0  0  0  0  0  0  0  0  0  0
  -12.4479  -25.8168   30.5498 H   0  0  0  0  0  0  0  0  0  0  0  0
  -10.8135  -26.5259   30.6183 H   0  0  0  0  0  0  0  0  0  0  0  0
  1  2  1  0
  2  3  1  0
  3  4  2  0
  4  5  1  0
  5  6  2  0
  6  7  1  0
  7  8  1  0
  8  9  1  0
  9 10  1  0
 10 11  1  0
 11 12  1  0
 12 13  1  0
  9 14  1  0
 14 15  1  0
 15 16  1  0
 16 17  1  0
 17 18  1  0
 18 19  1  0
 19 20  1  0
 20 21  2  0
 21 22  1  0
 22 23  1  0
  6  2  1  0
 15  7  1  0
 22 18  2  0
 13 10  1  0
 23 15  1  0
  1 24  1  0
  1 25  1  0
  1 26  1  0
  3 27  1  0
  4 28  1  0
  7 29  1  0
  8 30  1  0
  9 31  1  0
 10 32  1  0
 11 33  1  0
 11 34  1  0
 12 35  1  0
 12 36  1  0
 13 37  1  0
 13 38  1  0
 16 39  1  0
 16 40  1  0
 17 41  1  0
 17 42  1  0
 19 43  1  0
 20 44  1  0
 21 45  1  0
 23 46  1  0
 23 47  1  0
M  END
>  <Energy>  (728) 
132.81038239590069

>  <compound_id>  (728) 
2009

>  <target_id>  (728) 
1

>  <reference_id>  (728) 
96

>  <inspiration_ids>  (728) 
[32, 96]

>  <energy_score>  (728) 
23.426291486912362

>  <distance_score>  (728) 
3.1949755480700044

>  <path>  (728) 
/opt/xchem-fragalysis-2/maxwin/BulkDock/SCRATCH/505732/C2009-P96/C2009-P96.minimised.mol

>  <scratch_subdir>  (728) 
/opt/xchem-fragalysis-2/maxwin/BulkDock/SCRATCH/505732/C2009-P96

>  <fragmenstein_runtime>  (728) 
11.140614032745361

>  <fragmenstein_outcome>  (728) 
too moved

>  <fragmenstein_mode>  (728) 
expansion

>  <fragmenstein_error>  (728) 


$$$$
C2011-P32
     RDKit          3D

 50 54  0  0  0  0  0  0  0  0999 V2000
  -15.5189  -25.2739   27.9813 N   0  0  0  0  0  0  0  0  0  0  0  0
  -14.1127  -24.8653   27.8912 C   0  0  0  0  0  0  0  0  0  0  0  0
  -13.1721  -26.0440   27.9797 C   0  0  0  0  0  0  0  0  0  0  0  0
  -13.6487  -27.1524   27.1404 C   0  0  0  0  0  0  0  0  0  0  0  0
  -13.5155  -28.3954   27.6113 C   0  0  0  0  0  0  0  0  0  0  0  0
  -12.8023  -28.5770   28.7806 N   0  0  0  0  0  0  0  0  0  0  0  0
  -12.6362  -29.6833   29.5674 C   0  0  0  0  0  0  0  0  0  0  0  0
  -12.0763  -29.2215   30.7343 C   0  0  0  0  0  0  0  0  0  0  0  0
  -11.7752  -27.9054   30.6342 N   0  0  0  0  0  0  0  0  0  0  0  0
  -12.1388  -27.5556   29.4225 C   0  0  0  0  0  0  0  0  0  0  0  0
  -12.1833  -26.2252   28.9171 C   0  0  0  0  0  0  0  0  0  0  0  0
  -11.5153  -25.2145   29.8602 C   0  0  0  0  0  0  0  0  0  0  0  0
  -10.0681  -25.1044   29.9467 N   0  0  0  0  0  0  0  0  0  0  0  0
   -9.5557  -23.8511   30.5384 C   0  0  0  0  0  0  0  0  0  0  0  0
  -10.2224  -23.3549   31.7500 N   0  0  0  0  0  0  0  0  0  0  0  0
   -9.9472  -23.8261   32.9937 C   0  0  0  0  0  0  0  0  0  0  0  0
  -10.0413  -22.7320   33.8181 C   0  0  0  0  0  0  0  0  0  0  0  0
  -10.3708  -21.6003   33.1173 N   0  0  0  0  0  0  0  0  0  0  0  0
  -10.6890  -22.0504   31.9260 C   0  0  0  0  0  0  0  0  0  0  0  0
  -11.4167  -21.3061   30.7673 C   0  0  0  0  0  0  0  0  0  0  0  0
  -11.0327  -20.1432   30.2177 N   0  0  0  0  0  0  0  0  0  0  0  0
  -11.0446  -20.4753   28.8274 O   0  0  0  0  0  0  0  0  0  0  0  0
  -11.6094  -21.7145   28.7543 C   0  0  0  0  0  0  0  0  0  0  0  0
  -11.5275  -22.7782   27.6596 C   0  0  0  0  0  0  0  0  0  0  0  0
  -11.7881  -22.5408   26.1989 C   0  0  0  0  0  0  0  0  0  0  0  0
  -10.7254  -23.6119   25.9303 C   0  0  0  0  0  0  0  0  0  0  0  0
  -10.1414  -23.3119   27.3096 C   0  0  0  0  0  0  0  0  0  0  0  0
  -12.0844  -22.1087   29.9037 N   0  0  0  0  0  0  0  0  0  0  0  0
  -16.1105  -24.4391   27.9890 H   0  0  0  0  0  0  0  0  0  0  0  0
  -15.6691  -25.7166   28.8885 H   0  0  0  0  0  0  0  0  0  0  0  0
  -13.9747  -24.3559   26.9350 H   0  0  0  0  0  0  0  0  0  0  0  0
  -13.9465  -24.1700   28.7149 H   0  0  0  0  0  0  0  0  0  0  0  0
  -14.2029  -26.9428   26.2310 H   0  0  0  0  0  0  0  0  0  0  0  0
  -13.9338  -29.2683   27.1296 H   0  0  0  0  0  0  0  0  0  0  0  0
  -13.0086  -30.6557   29.2800 H   0  0  0  0  0  0  0  0  0  0  0  0
  -11.8662  -29.7708   31.6427 H   0  0  0  0  0  0  0  0  0  0  0  0
  -11.7598  -25.5343   30.8624 H   0  0  0  0  0  0  0  0  0  0  0  0
  -11.9541  -24.2594   29.6915 H   0  0  0  0  0  0  0  0  0  0  0  0
   -9.7306  -25.8718   30.5332 H   0  0  0  0  0  0  0  0  0  0  0  0
   -8.5083  -24.0079   30.8179 H   0  0  0  0  0  0  0  0  0  0  0  0
   -9.5336  -23.0481   29.8059 H   0  0  0  0  0  0  0  0  0  0  0  0
   -9.6773  -24.8556   33.1623 H   0  0  0  0  0  0  0  0  0  0  0  0
   -9.8845  -22.7115   34.8859 H   0  0  0  0  0  0  0  0  0  0  0  0
  -12.1655  -23.5949   27.9355 H   0  0  0  0  0  0  0  0  0  0  0  0
  -12.7786  -22.8132   25.8254 H   0  0  0  0  0  0  0  0  0  0  0  0
  -11.5556  -21.5429   25.8442 H   0  0  0  0  0  0  0  0  0  0  0  0
  -10.0765  -23.4101   25.0807 H   0  0  0  0  0  0  0  0  0  0  0  0
  -11.1115  -24.6353   25.8708 H   0  0  0  0  0  0  0  0  0  0  0  0
   -9.3478  -22.5705   27.3631 H   0  0  0  0  0  0  0  0  0  0  0  0
   -9.7767  -24.2210   27.7773 H   0  0  0  0  0  0  0  0  0  0  0  0
  1  2  1  0
  2  3  1  0
  3  4  1  0
  4  5  2  0
  5  6  1  0
  6  7  1  0
  7  8  2  0
  8  9  1  0
  9 10  2  0
 10 11  1  0
 11 12  1  0
 12 13  1  0
 13 14  1  0
 14 15  1  0
 15 16  1  0
 16 17  2  0
 17 18  1  0
 18 19  2  0
 19 20  1  0
 20 21  2  0
 21 22  1  0
 22 23  1  0
 23 24  1  0
 24 25  1  0
 25 26  1  0
 26 27  1  0
 23 28  2  0
 11  3  2  0
 19 15  1  0
 28 20  1  0
 10  6  1  0
 27 24  1  0
  1 29  1  0
  1 30  1  0
  2 31  1  0
  2 32  1  0
  4 33  1  0
  5 34  1  0
  7 35  1  0
  8 36  1  0
 12 37  1  0
 12 38  1  0
 13 39  1  0
 14 40  1  0
 14 41  1  0
 16 42  1  0
 17 43  1  0
 24 44  1  0
 25 45  1  0
 25 46  1  0
 26 47  1  0
 26 48  1  0
 27 49  1  0
 27 50  1  0
M  END
>  <Energy>  (729) 
153.04302116307042

>  <compound_id>  (729) 
2011

>  <target_id>  (729) 
1

>  <reference_id>  (729) 
32

>  <inspiration_ids>  (729) 
[32, 110]

>  <energy_score>  (729) 
14.719439546744525

>  <distance_score>  (729) 
2.895128560394781

>  <path>  (729) 
/opt/xchem-fragalysis-2/maxwin/BulkDock/SCRATCH/505732/C2011-P32/C2011-P32.minimised.mol

>  <scratch_subdir>  (729) 
/opt/xchem-fragalysis-2/maxwin/BulkDock/SCRATCH/505732/C2011-P32

>  <fragmenstein_runtime>  (729) 
8.881111145019531

>  <fragmenstein_outcome>  (729) 
too moved

>  <fragmenstein_mode>  (729) 
expansion

>  <fragmenstein_error>  (729) 


$$$$
C2011-P110
     RDKit          3D

 50 54  0  0  0  0  0  0  0  0999 V2000
  -15.6081  -23.1173   24.6392 N   0  0  0  0  0  0  0  0  0  0  0  0
  -14.3248  -23.8055   24.7284 C   0  0  0  0  0  0  0  0  0  0  0  0
  -13.8995  -24.2782   26.1189 C   0  0  0  0  0  0  0  0  0  0  0  0
  -14.6807  -25.4729   26.5341 C   0  0  0  0  0  0  0  0  0  0  0  0
  -14.0119  -26.6392   26.5626 C   0  0  0  0  0  0  0  0  0  0  0  0
  -12.6597  -26.6088   26.2217 N   0  0  0  0  0  0  0  0  0  0  0  0
  -11.6819  -27.5270   26.3523 C   0  0  0  0  0  0  0  0  0  0  0  0
  -10.5582  -26.9728   25.8410 C   0  0  0  0  0  0  0  0  0  0  0  0
  -10.7603  -25.6822   25.4942 N   0  0  0  0  0  0  0  0  0  0  0  0
  -11.9732  -25.4514   25.9044 C   0  0  0  0  0  0  0  0  0  0  0  0
  -12.5678  -24.2982   26.4745 C   0  0  0  0  0  0  0  0  0  0  0  0
  -12.1191  -24.1146   27.9550 C   0  0  0  0  0  0  0  0  0  0  0  0
  -10.7343  -24.3360   28.3817 N   0  0  0  0  0  0  0  0  0  0  0  0
  -10.0855  -25.5723   28.8623 C   0  0  0  0  0  0  0  0  0  0  0  0
  -10.7647  -26.4667   29.8124 N   0  0  0  0  0  0  0  0  0  0  0  0
  -11.5977  -27.4899   29.4671 C   0  0  0  0  0  0  0  0  0  0  0  0
  -11.8129  -28.2674   30.5731 C   0  0  0  0  0  0  0  0  0  0  0  0
  -11.2486  -27.6983   31.6312 N   0  0  0  0  0  0  0  0  0  0  0  0
  -10.5825  -26.6541   31.1669 C   0  0  0  0  0  0  0  0  0  0  0  0
   -9.9678  -25.6659   32.1558 C   0  0  0  0  0  0  0  0  0  0  0  0
   -8.9852  -24.8133   31.8722 N   0  0  0  0  0  0  0  0  0  0  0  0
   -9.3661  -23.7049   32.6288 O   0  0  0  0  0  0  0  0  0  0  0  0
  -10.6391  -23.9974   33.0298 C   0  0  0  0  0  0  0  0  0  0  0  0
  -11.8125  -23.1404   32.5658 C   0  0  0  0  0  0  0  0  0  0  0  0
  -11.6960  -21.6328   32.2780 C   0  0  0  0  0  0  0  0  0  0  0  0
  -12.4336  -21.9393   30.9577 C   0  0  0  0  0  0  0  0  0  0  0  0
  -11.7334  -23.2598   31.0288 C   0  0  0  0  0  0  0  0  0  0  0  0
  -10.7748  -25.2850   33.1913 N   0  0  0  0  0  0  0  0  0  0  0  0
  -16.2601  -23.4954   25.3216 H   0  0  0  0  0  0  0  0  0  0  0  0
  -15.4563  -22.1400   24.9113 H   0  0  0  0  0  0  0  0  0  0  0  0
  -14.4129  -24.6808   24.0763 H   0  0  0  0  0  0  0  0  0  0  0  0
  -13.5588  -23.1481   24.3017 H   0  0  0  0  0  0  0  0  0  0  0  0
  -15.7349  -25.3801   26.7680 H   0  0  0  0  0  0  0  0  0  0  0  0
  -14.4508  -27.5843   26.8495 H   0  0  0  0  0  0  0  0  0  0  0  0
  -11.8112  -28.4707   26.8439 H   0  0  0  0  0  0  0  0  0  0  0  0
   -9.5922  -27.4381   25.8443 H   0  0  0  0  0  0  0  0  0  0  0  0
  -12.3062  -23.0593   28.1775 H   0  0  0  0  0  0  0  0  0  0  0  0
  -12.7872  -24.6766   28.5919 H   0  0  0  0  0  0  0  0  0  0  0  0
  -10.1284  -23.9287   27.6675 H   0  0  0  0  0  0  0  0  0  0  0  0
   -9.7576  -26.1977   28.0363 H   0  0  0  0  0  0  0  0  0  0  0  0
   -9.1640  -25.2592   29.3548 H   0  0  0  0  0  0  0  0  0  0  0  0
  -12.0396  -27.5717   28.5164 H   0  0  0  0  0  0  0  0  0  0  0  0
  -12.4155  -29.1617   30.6617 H   0  0  0  0  0  0  0  0  0  0  0  0
  -12.7599  -23.4184   33.0383 H   0  0  0  0  0  0  0  0  0  0  0  0
  -12.2130  -20.9940   32.9952 H   0  0  0  0  0  0  0  0  0  0  0  0
  -10.7048  -21.2278   32.0580 H   0  0  0  0  0  0  0  0  0  0  0  0
  -13.5159  -21.9777   31.0851 H   0  0  0  0  0  0  0  0  0  0  0  0
  -12.1433  -21.3689   30.0735 H   0  0  0  0  0  0  0  0  0  0  0  0
  -12.0793  -24.1711   30.5786 H   0  0  0  0  0  0  0  0  0  0  0  0
  -10.7513  -23.1612   30.6129 H   0  0  0  0  0  0  0  0  0  0  0  0
  1  2  1  0
  2  3  1  0
  3  4  1  0
  4  5  2  0
  5  6  1  0
  6  7  1  0
  7  8  2  0
  8  9  1  0
  9 10  2  0
 10 11  1  0
 11 12  1  0
 12 13  1  0
 13 14  1  0
 14 15  1  0
 15 16  1  0
 16 17  2  0
 17 18  1  0
 18 19  2  0
 19 20  1  0
 20 21  2  0
 21 22  1  0
 22 23  1  0
 23 24  1  0
 24 25  1  0
 25 26  1  0
 26 27  1  0
 23 28  2  0
 11  3  2  0
 19 15  1  0
 28 20  1  0
 10  6  1  0
 27 24  1  0
  1 29  1  0
  1 30  1  0
  2 31  1  0
  2 32  1  0
  4 33  1  0
  5 34  1  0
  7 35  1  0
  8 36  1  0
 12 37  1  0
 12 38  1  0
 13 39  1  0
 14 40  1  0
 14 41  1  0
 16 42  1  0
 17 43  1  0
 24 44  1  0
 25 45  1  0
 25 46  1  0
 26 47  1  0
 26 48  1  0
 27 49  1  0
 27 50  1  0
M  END
>  <Energy>  (730) 
231.30355197683406

>  <compound_id>  (730) 
2011

>  <target_id>  (730) 
1

>  <reference_id>  (730) 
110

>  <inspiration_ids>  (730) 
[32, 110]

>  <energy_score>  (730) 
118.2247602698136

>  <distance_score>  (730) 
3.8750181411744813

>  <path>  (730) 
/opt/xchem-fragalysis-2/maxwin/BulkDock/SCRATCH/505732/C2011-P110/C2011-P110.minimised.mol

>  <scratch_subdir>  (730) 
/opt/xchem-fragalysis-2/maxwin/BulkDock/SCRATCH/505732/C2011-P110

>  <fragmenstein_runtime>  (730) 
11.792484760284424

>  <fragmenstein_outcome>  (730) 
too moved

>  <fragmenstein_mode>  (730) 
expansion

>  <fragmenstein_error>  (730) 


$$$$
C2013-P32
     RDKit          3D

 52 54  0  0  0  0  0  0  0  0999 V2000
  -12.4831  -25.9430   26.0410 C   0  0  0  0  0  0  0  0  0  0  0  0
  -11.7290  -25.3010   27.0978 N   0  0  0  0  0  0  0  0  0  0  0  0
  -10.8680  -24.2198   26.5446 C   0  0  0  0  0  0  0  0  0  0  0  0
   -9.7345  -23.8368   27.5287 C   0  0  0  0  0  0  0  0  0  0  0  0
   -9.2112  -25.0177   28.1617 N   0  0  0  0  0  0  0  0  0  0  0  0
   -9.3834  -22.6951   27.5971 O   0  0  0  0  0  0  0  0  0  0  0  0
  -12.6116  -24.6510   28.1098 C   0  0  0  0  0  0  0  0  0  0  0  0
  -14.2400  -25.4819   28.4789 S   0  0  0  0  0  0  0  0  0  0  0  0
  -15.1954  -24.9455   27.2285 N   0  0  0  0  0  0  0  0  0  0  0  0
  -11.8143  -24.7001   29.3807 C   0  0  0  0  0  0  0  0  0  0  0  0
  -11.2821  -23.5945   29.9535 C   0  0  0  0  0  0  0  0  0  0  0  0
  -10.5417  -23.7125   31.1089 N   0  0  0  0  0  0  0  0  0  0  0  0
  -10.3870  -22.6539   32.1080 C   0  0  0  0  0  0  0  0  0  0  0  0
   -9.6130  -23.3699   33.2198 C   0  0  0  0  0  0  0  0  0  0  0  0
   -9.9348  -24.8005   33.0189 N   0  0  0  0  0  0  0  0  0  0  0  0
  -10.4597  -24.9609   31.7552 C   0  0  0  0  0  0  0  0  0  0  0  0
  -11.0701  -26.0804   31.2365 C   0  0  0  0  0  0  0  0  0  0  0  0
  -11.3341  -27.2003   32.0100 N   0  0  0  0  0  0  0  0  0  0  0  0
  -12.0295  -28.4199   31.7110 C   0  0  0  0  0  0  0  0  0  0  0  0
  -11.7376  -29.3544   32.7279 O   0  0  0  0  0  0  0  0  0  0  0  0
  -13.5489  -28.2795   31.5998 C   0  0  0  0  0  0  0  0  0  0  0  0
  -14.4947  -28.5874   32.8046 C   0  0  0  0  0  0  0  0  0  0  0  0
  -15.4583  -29.2359   31.7915 C   0  0  0  0  0  0  0  0  0  0  0  0
  -14.2340  -29.4881   30.8948 C   0  0  0  0  0  0  0  0  0  0  0  0
  -11.5951  -25.9637   29.9587 N   0  0  0  0  0  0  0  0  0  0  0  0
  -13.0358  -26.8168   26.3997 H   0  0  0  0  0  0  0  0  0  0  0  0
  -11.7781  -26.3433   25.3152 H   0  0  0  0  0  0  0  0  0  0  0  0
  -13.1760  -25.2676   25.5319 H   0  0  0  0  0  0  0  0  0  0  0  0
  -10.3492  -24.5833   25.6560 H   0  0  0  0  0  0  0  0  0  0  0  0
  -11.4346  -23.3271   26.2537 H   0  0  0  0  0  0  0  0  0  0  0  0
   -9.6962  -25.8489   27.7782 H   0  0  0  0  0  0  0  0  0  0  0  0
   -9.8443  -25.8175   27.9617 H   0  0  0  0  0  0  0  0  0  0  0  0
  -12.8549  -23.6213   27.8352 H   0  0  0  0  0  0  0  0  0  0  0  0
  -15.8661  -24.2506   27.5743 H   0  0  0  0  0  0  0  0  0  0  0  0
  -15.7892  -25.7065   26.8933 H   0  0  0  0  0  0  0  0  0  0  0  0
  -11.4004  -22.5834   29.5809 H   0  0  0  0  0  0  0  0  0  0  0  0
   -9.8542  -21.7816   31.7429 H   0  0  0  0  0  0  0  0  0  0  0  0
  -11.3618  -22.3226   32.4786 H   0  0  0  0  0  0  0  0  0  0  0  0
   -8.5387  -23.2015   33.0823 H   0  0  0  0  0  0  0  0  0  0  0  0
   -9.9014  -23.0278   34.2177 H   0  0  0  0  0  0  0  0  0  0  0  0
   -9.0868  -25.3665   33.1432 H   0  0  0  0  0  0  0  0  0  0  0  0
  -10.8516  -27.1541   32.8959 H   0  0  0  0  0  0  0  0  0  0  0  0
  -11.6584  -28.8363   30.7692 H   0  0  0  0  0  0  0  0  0  0  0  0
  -10.7817  -29.2974   32.9262 H   0  0  0  0  0  0  0  0  0  0  0  0
  -13.8343  -27.3413   31.1056 H   0  0  0  0  0  0  0  0  0  0  0  0
  -14.9135  -27.7266   33.3285 H   0  0  0  0  0  0  0  0  0  0  0  0
  -14.1035  -29.2943   33.5444 H   0  0  0  0  0  0  0  0  0  0  0  0
  -16.1830  -28.5352   31.3611 H   0  0  0  0  0  0  0  0  0  0  0  0
  -15.9863  -30.1271   32.1393 H   0  0  0  0  0  0  0  0  0  0  0  0
  -13.7540  -30.4574   31.0757 H   0  0  0  0  0  0  0  0  0  0  0  0
  -14.4031  -29.3742   29.8206 H   0  0  0  0  0  0  0  0  0  0  0  0
  -12.2736  -26.6648   29.6974 H   0  0  0  0  0  0  0  0  0  0  0  0
  1  2  1  0
  2  3  1  0
  3  4  1  0
  4  5  1  0
  4  6  2  0
  2  7  1  0
  7  8  1  0
  8  9  1  0
  7 10  1  0
 10 11  2  0
 11 12  1  0
 12 13  1  0
 13 14  1  0
 14 15  1  0
 15 16  1  0
 16 17  2  0
 17 18  1  0
 18 19  1  0
 19 20  1  0
 19 21  1  0
 21 22  1  0
 22 23  1  0
 23 24  1  0
 17 25  1  0
 25 10  1  0
 16 12  1  0
 24 21  1  0
  1 26  1  0
  1 27  1  0
  1 28  1  0
  3 29  1  0
  3 30  1  0
  5 31  1  0
  5 32  1  0
  7 33  1  0
  9 34  1  0
  9 35  1  0
 11 36  1  0
 13 37  1  0
 13 38  1  0
 14 39  1  0
 14 40  1  0
 15 41  1  0
 18 42  1  0
 19 43  1  0
 20 44  1  0
 21 45  1  0
 22 46  1  0
 22 47  1  0
 23 48  1  0
 23 49  1  0
 24 50  1  0
 24 51  1  0
 25 52  1  0
M  END
>  <Energy>  (731) 
243.92715236315041

>  <compound_id>  (731) 
2013

>  <target_id>  (731) 
1

>  <reference_id>  (731) 
32

>  <inspiration_ids>  (731) 
[32, 119]

>  <energy_score>  (731) 
91.98761338513452

>  <distance_score>  (731) 
2.4839388174833137

>  <path>  (731) 
/opt/xchem-fragalysis-2/maxwin/BulkDock/SCRATCH/505732/C2013-P32/C2013-P32.minimised.mol

>  <scratch_subdir>  (731) 
/opt/xchem-fragalysis-2/maxwin/BulkDock/SCRATCH/505732/C2013-P32

>  <fragmenstein_runtime>  (731) 
13.235949993133545

>  <fragmenstein_outcome>  (731) 
too moved

>  <fragmenstein_mode>  (731) 
expansion

>  <fragmenstein_error>  (731) 


$$$$
C2013-P119
     RDKit          3D

 52 54  0  0  0  0  0  0  0  0999 V2000
  -12.0203  -22.6603   25.0554 C   0  0  0  0  0  0  0  0  0  0  0  0
  -11.7281  -23.7515   26.0032 N   0  0  0  0  0  0  0  0  0  0  0  0
  -10.4019  -23.4833   26.5837 C   0  0  0  0  0  0  0  0  0  0  0  0
  -10.2926  -22.3074   27.6488 C   0  0  0  0  0  0  0  0  0  0  0  0
   -9.3139  -22.6477   28.6601 N   0  0  0  0  0  0  0  0  0  0  0  0
  -10.9216  -21.3010   27.4807 O   0  0  0  0  0  0  0  0  0  0  0  0
  -12.7273  -23.8377   27.0755 C   0  0  0  0  0  0  0  0  0  0  0  0
  -14.1233  -24.9857   26.6957 S   0  0  0  0  0  0  0  0  0  0  0  0
  -14.8807  -24.2432   25.4277 N   0  0  0  0  0  0  0  0  0  0  0  0
  -12.1271  -24.3251   28.3720 C   0  0  0  0  0  0  0  0  0  0  0  0
  -11.8877  -23.4802   29.3988 C   0  0  0  0  0  0  0  0  0  0  0  0
  -10.9782  -23.8398   30.3716 N   0  0  0  0  0  0  0  0  0  0  0  0
  -10.6167  -23.0419   31.5389 C   0  0  0  0  0  0  0  0  0  0  0  0
   -9.5504  -23.9346   32.1955 C   0  0  0  0  0  0  0  0  0  0  0  0
   -9.8685  -25.2910   31.6916 N   0  0  0  0  0  0  0  0  0  0  0  0
  -10.5756  -25.1712   30.5072 C   0  0  0  0  0  0  0  0  0  0  0  0
  -11.0239  -26.1020   29.5849 C   0  0  0  0  0  0  0  0  0  0  0  0
  -11.1519  -27.4613   29.8632 N   0  0  0  0  0  0  0  0  0  0  0  0
  -11.9801  -28.4110   29.1605 C   0  0  0  0  0  0  0  0  0  0  0  0
  -11.0719  -29.1292   28.3549 O   0  0  0  0  0  0  0  0  0  0  0  0
  -12.6899  -29.3942   30.0820 C   0  0  0  0  0  0  0  0  0  0  0  0
  -14.1357  -29.0670   30.5579 C   0  0  0  0  0  0  0  0  0  0  0  0
  -14.4389  -30.5735   30.4450 C   0  0  0  0  0  0  0  0  0  0  0  0
  -13.3189  -30.6411   29.3912 C   0  0  0  0  0  0  0  0  0  0  0  0
  -11.5721  -25.6058   28.4144 N   0  0  0  0  0  0  0  0  0  0  0  0
  -12.9966  -22.7502   24.5790 H   0  0  0  0  0  0  0  0  0  0  0  0
  -11.2879  -22.6476   24.2404 H   0  0  0  0  0  0  0  0  0  0  0  0
  -11.9607  -21.6778   25.4939 H   0  0  0  0  0  0  0  0  0  0  0  0
  -10.0221  -24.4197   26.9937 H   0  0  0  0  0  0  0  0  0  0  0  0
   -9.7468  -23.2579   25.7516 H   0  0  0  0  0  0  0  0  0  0  0  0
   -8.8933  -23.5611   28.4272 H   0  0  0  0  0  0  0  0  0  0  0  0
   -9.0640  -23.6503   28.5651 H   0  0  0  0  0  0  0  0  0  0  0  0
  -13.0782  -22.8344   27.1936 H   0  0  0  0  0  0  0  0  0  0  0  0
  -14.3382  -24.3793   24.5710 H   0  0  0  0  0  0  0  0  0  0  0  0
  -14.9463  -23.2331   25.5707 H   0  0  0  0  0  0  0  0  0  0  0  0
  -12.2380  -22.4541   29.4601 H   0  0  0  0  0  0  0  0  0  0  0  0
  -10.2219  -22.0584   31.2799 H   0  0  0  0  0  0  0  0  0  0  0  0
  -11.4707  -22.8959   32.2050 H   0  0  0  0  0  0  0  0  0  0  0  0
   -8.5526  -23.6464   31.8451 H   0  0  0  0  0  0  0  0  0  0  0  0
   -9.5651  -23.8658   33.2831 H   0  0  0  0  0  0  0  0  0  0  0  0
   -9.0408  -25.8689   31.6315 H   0  0  0  0  0  0  0  0  0  0  0  0
  -11.1923  -27.5584   30.8733 H   0  0  0  0  0  0  0  0  0  0  0  0
  -12.7178  -27.9413   28.5040 H   0  0  0  0  0  0  0  0  0  0  0  0
  -10.2242  -28.9515   28.7990 H   0  0  0  0  0  0  0  0  0  0  0  0
  -12.0548  -29.6663   30.9304 H   0  0  0  0  0  0  0  0  0  0  0  0
  -14.7190  -28.4533   29.8617 H   0  0  0  0  0  0  0  0  0  0  0  0
  -14.2266  -28.6538   31.5656 H   0  0  0  0  0  0  0  0  0  0  0  0
  -15.4404  -30.8335   30.0943 H   0  0  0  0  0  0  0  0  0  0  0  0
  -14.2203  -31.1382   31.3586 H   0  0  0  0  0  0  0  0  0  0  0  0
  -12.7141  -31.5510   29.4037 H   0  0  0  0  0  0  0  0  0  0  0  0
  -13.6708  -30.4641   28.3676 H   0  0  0  0  0  0  0  0  0  0  0  0
  -11.9468  -26.2600   27.7421 H   0  0  0  0  0  0  0  0  0  0  0  0
  1  2  1  0
  2  3  1  0
  3  4  1  0
  4  5  1  0
  4  6  2  0
  2  7  1  0
  7  8  1  0
  8  9  1  0
  7 10  1  0
 10 11  2  0
 11 12  1  0
 12 13  1  0
 13 14  1  0
 14 15  1  0
 15 16  1  0
 16 17  2  0
 17 18  1  0
 18 19  1  0
 19 20  1  0
 19 21  1  0
 21 22  1  0
 22 23  1  0
 23 24  1  0
 17 25  1  0
 25 10  1  0
 16 12  1  0
 24 21  1  0
  1 26  1  0
  1 27  1  0
  1 28  1  0
  3 29  1  0
  3 30  1  0
  5 31  1  0
  5 32  1  0
  7 33  1  0
  9 34  1  0
  9 35  1  0
 11 36  1  0
 13 37  1  0
 13 38  1  0
 14 39  1  0
 14 40  1  0
 15 41  1  0
 18 42  1  0
 19 43  1  0
 20 44  1  0
 21 45  1  0
 22 46  1  0
 22 47  1  0
 23 48  1  0
 23 49  1  0
 24 50  1  0
 24 51  1  0
 25 52  1  0
M  END
>  <Energy>  (732) 
265.2301241116694

>  <compound_id>  (732) 
2013

>  <target_id>  (732) 
1

>  <reference_id>  (732) 
119

>  <inspiration_ids>  (732) 
[32, 119]

>  <energy_score>  (732) 
113.29058513365612

>  <distance_score>  (732) 
2.6798812927272175

>  <path>  (732) 
/opt/xchem-fragalysis-2/maxwin/BulkDock/SCRATCH/505732/C2013-P119/C2013-P119.minimised.mol

>  <scratch_subdir>  (732) 
/opt/xchem-fragalysis-2/maxwin/BulkDock/SCRATCH/505732/C2013-P119

>  <fragmenstein_runtime>  (732) 
15.289159059524536

>  <fragmenstein_outcome>  (732) 
too moved

>  <fragmenstein_mode>  (732) 
expansion

>  <fragmenstein_error>  (732) 


$$$$
C2014-P32
     RDKit          3D

 55 59  0  0  0  0  0  0  0  0999 V2000
  -18.8564  -25.5551   27.6263 C   0  0  0  0  0  0  0  0  0  0  0  0
  -17.6189  -25.4668   26.8498 N   0  0  0  0  0  0  0  0  0  0  0  0
  -17.6637  -24.6758   25.7145 C   0  0  0  0  0  0  0  0  0  0  0  0
  -16.5738  -23.8819   25.8368 C   0  0  0  0  0  0  0  0  0  0  0  0
  -15.7340  -24.3890   26.7782 N   0  0  0  0  0  0  0  0  0  0  0  0
  -16.1337  -25.6524   27.2779 C   0  0  0  0  0  0  0  0  0  0  0  0
  -14.9379  -27.2062   28.1990 C   0  0  0  0  0  0  0  0  0  0  0  0
  -14.8928  -27.8196   29.7557 N   0  0  0  0  0  0  0  0  0  0  0  0
  -13.7183  -27.1783   30.4187 C   0  0  0  0  0  0  0  0  0  0  0  0
  -12.9584  -28.1400   31.3300 C   0  0  0  0  0  0  0  0  0  0  0  0
  -12.5005  -29.5220   30.8222 C   0  0  0  0  0  0  0  0  0  0  0  0
  -13.7007  -30.1561   31.5454 C   0  0  0  0  0  0  0  0  0  0  0  0
  -13.7813  -28.8911   32.4151 C   0  0  0  0  0  0  0  0  0  0  0  0
  -12.8816  -26.5390   29.2739 C   0  0  0  0  0  0  0  0  0  0  0  0
  -11.3469  -26.5390   29.3676 C   0  0  0  0  0  0  0  0  0  0  0  0
  -10.8863  -25.5408   28.3680 N   0  0  0  0  0  0  0  0  0  0  0  0
  -11.9773  -24.5585   28.4208 C   0  0  0  0  0  0  0  0  0  0  0  0
  -13.1560  -25.0894   29.1041 N   0  0  0  0  0  0  0  0  0  0  0  0
  -14.3489  -25.2022   28.2968 C   0  0  0  0  0  0  0  0  0  0  0  0
  -15.8035  -25.6128   29.3164 C   0  0  0  0  0  0  0  0  0  0  0  0
  -16.9462  -26.9170   28.7639 C   0  0  0  0  0  0  0  0  0  0  0  0
  -16.7285  -27.7068   27.1475 C   0  0  0  0  0  0  0  0  0  0  0  0
  -17.6388  -28.8122   26.7007 C   0  0  0  0  0  0  0  0  0  0  0  0
  -18.0839  -29.5370   27.8352 O   0  0  0  0  0  0  0  0  0  0  0  0
  -15.3568  -27.1998   26.0817 C   0  0  0  0  0  0  0  0  0  0  0  0
  -14.1621  -25.9649   26.6285 C   0  0  0  0  0  0  0  0  0  0  0  0
  -13.3215  -27.4411   28.2186 N   0  0  0  0  0  0  0  0  0  0  0  0
  -19.2272  -26.5809   27.6232 H   0  0  0  0  0  0  0  0  0  0  0  0
  -18.6908  -25.1562   28.6294 H   0  0  0  0  0  0  0  0  0  0  0  0
  -19.6206  -24.9274   27.1545 H   0  0  0  0  0  0  0  0  0  0  0  0
  -18.5599  -24.5757   25.1191 H   0  0  0  0  0  0  0  0  0  0  0  0
  -16.3360  -22.9654   25.3144 H   0  0  0  0  0  0  0  0  0  0  0  0
  -15.0443  -28.2357   27.7828 H   0  0  0  0  0  0  0  0  0  0  0  0
  -15.7346  -27.6671   30.2894 H   0  0  0  0  0  0  0  0  0  0  0  0
  -14.1542  -26.4238   31.0639 H   0  0  0  0  0  0  0  0  0  0  0  0
  -12.1346  -27.5891   31.8060 H   0  0  0  0  0  0  0  0  0  0  0  0
  -11.5349  -29.7920   31.2564 H   0  0  0  0  0  0  0  0  0  0  0  0
  -12.4620  -29.6795   29.7426 H   0  0  0  0  0  0  0  0  0  0  0  0
  -13.4927  -31.0834   32.0855 H   0  0  0  0  0  0  0  0  0  0  0  0
  -14.5743  -30.3155   30.9047 H   0  0  0  0  0  0  0  0  0  0  0  0
  -14.7894  -28.5178   32.6145 H   0  0  0  0  0  0  0  0  0  0  0  0
  -13.2519  -28.9894   33.3702 H   0  0  0  0  0  0  0  0  0  0  0  0
  -10.9464  -27.5197   29.1142 H   0  0  0  0  0  0  0  0  0  0  0  0
  -11.0094  -26.2303   30.3632 H   0  0  0  0  0  0  0  0  0  0  0  0
  -10.0280  -25.1049   28.7034 H   0  0  0  0  0  0  0  0  0  0  0  0
  -12.1865  -24.1801   27.4138 H   0  0  0  0  0  0  0  0  0  0  0  0
  -11.6341  -23.6913   28.9989 H   0  0  0  0  0  0  0  0  0  0  0  0
  -15.8676  -25.2274   30.3332 H   0  0  0  0  0  0  0  0  0  0  0  0
  -17.7398  -27.2605   29.4301 H   0  0  0  0  0  0  0  0  0  0  0  0
  -17.1041  -29.4988   26.0385 H   0  0  0  0  0  0  0  0  0  0  0  0
  -18.5035  -28.4048   26.1717 H   0  0  0  0  0  0  0  0  0  0  0  0
  -17.2882  -29.8023   28.3318 H   0  0  0  0  0  0  0  0  0  0  0  0
  -15.2387  -27.6784   25.1252 H   0  0  0  0  0  0  0  0  0  0  0  0
  -13.2932  -25.7346   26.0178 H   0  0  0  0  0  0  0  0  0  0  0  0
  -12.8423  -27.3212   27.3403 H   0  0  0  0  0  0  0  0  0  0  0  0
  1  2  1  0
  2  3  1  0
  3  4  2  0
  4  5  1  0
  5  6  2  0
  6  7  1  0
  7  8  1  0
  8  9  1  0
  9 10  1  0
 10 11  1  0
 11 12  1  0
 12 13  1  0
  9 14  1  0
 14 15  1  0
 15 16  1  0
 16 17  1  0
 17 18  1  0
 18 19  1  0
 19 20  2  0
 20 21  1  0
 21 22  2  0
 22 23  1  0
 23 24  1  0
 22 25  1  0
 25 26  2  0
 14 27  1  0
  6  2  1  0
 27  7  1  0
 13 10  1  0
 18 14  1  0
 26 19  1  0
  1 28  1  0
  1 29  1  0
  1 30  1  0
  3 31  1  0
  4 32  1  0
  7 33  1  0
  8 34  1  0
  9 35  1  0
 10 36  1  0
 11 37  1  0
 11 38  1  0
 12 39  1  0
 12 40  1  0
 13 41  1  0
 13 42  1  0
 15 43  1  0
 15 44  1  0
 16 45  1  0
 17 46  1  0
 17 47  1  0
 20 48  1  0
 21 49  1  0
 23 50  1  0
 23 51  1  0
 24 52  1  0
 25 53  1  0
 26 54  1  0
 27 55  1  0
M  END
>  <Energy>  (733) 
1099.9408850619081

>  <compound_id>  (733) 
2014

>  <target_id>  (733) 
1

>  <reference_id>  (733) 
32

>  <inspiration_ids>  (733) 
[32, 123]

>  <energy_score>  (733) 
963.9143296767027

>  <distance_score>  (733) 
5.121834585889906

>  <path>  (733) 
/opt/xchem-fragalysis-2/maxwin/BulkDock/SCRATCH/505732/C2014-P32/C2014-P32.minimised.mol

>  <scratch_subdir>  (733) 
/opt/xchem-fragalysis-2/maxwin/BulkDock/SCRATCH/505732/C2014-P32

>  <fragmenstein_runtime>  (733) 
9.819842338562012

>  <fragmenstein_outcome>  (733) 
too moved

>  <fragmenstein_mode>  (733) 
expansion

>  <fragmenstein_error>  (733) 


$$$$
C2014-P123
     RDKit          3D

 55 59  0  0  0  0  0  0  0  0999 V2000
  -10.9948  -24.2957   25.1427 C   0  0  0  0  0  0  0  0  0  0  0  0
  -11.5764  -25.3661   25.9019 N   0  0  0  0  0  0  0  0  0  0  0  0
  -11.6981  -26.6062   25.3664 C   0  0  0  0  0  0  0  0  0  0  0  0
  -10.8290  -27.3145   26.1247 C   0  0  0  0  0  0  0  0  0  0  0  0
  -10.5778  -26.6236   27.2721 N   0  0  0  0  0  0  0  0  0  0  0  0
  -11.4544  -25.5338   27.3733 C   0  0  0  0  0  0  0  0  0  0  0  0
  -12.1930  -24.4536   29.0804 C   0  0  0  0  0  0  0  0  0  0  0  0
  -13.3997  -23.7467   29.6923 N   0  0  0  0  0  0  0  0  0  0  0  0
  -12.7016  -23.8021   31.2909 C   0  0  0  0  0  0  0  0  0  0  0  0
  -13.1374  -22.5322   32.1651 C   0  0  0  0  0  0  0  0  0  0  0  0
  -13.2661  -22.8151   33.7056 C   0  0  0  0  0  0  0  0  0  0  0  0
  -14.7622  -22.5094   33.6636 C   0  0  0  0  0  0  0  0  0  0  0  0
  -14.5387  -21.8204   32.3193 C   0  0  0  0  0  0  0  0  0  0  0  0
  -11.1126  -23.8722   31.0588 C   0  0  0  0  0  0  0  0  0  0  0  0
  -10.4913  -23.8034   32.4738 C   0  0  0  0  0  0  0  0  0  0  0  0
  -10.4529  -25.2135   32.9629 N   0  0  0  0  0  0  0  0  0  0  0  0
  -10.1753  -25.9380   31.7171 C   0  0  0  0  0  0  0  0  0  0  0  0
  -10.2660  -25.0245   30.6179 N   0  0  0  0  0  0  0  0  0  0  0  0
  -10.4101  -25.4575   29.2447 C   0  0  0  0  0  0  0  0  0  0  0  0
  -10.4270  -23.9764   28.1407 C   0  0  0  0  0  0  0  0  0  0  0  0
  -12.0088  -23.5000   27.3139 C   0  0  0  0  0  0  0  0  0  0  0  0
  -13.3945  -24.6987   27.3041 C   0  0  0  0  0  0  0  0  0  0  0  0
  -14.3282  -24.8911   26.0734 C   0  0  0  0  0  0  0  0  0  0  0  0
  -14.1111  -24.0087   24.9802 O   0  0  0  0  0  0  0  0  0  0  0  0
  -13.2424  -26.2409   28.2236 C   0  0  0  0  0  0  0  0  0  0  0  0
  -11.7879  -26.6478   29.1830 C   0  0  0  0  0  0  0  0  0  0  0  0
  -11.4913  -23.1149   29.9184 N   0  0  0  0  0  0  0  0  0  0  0  0
  -10.3932  -24.6509   24.3365 H   0  0  0  0  0  0  0  0  0  0  0  0
  -11.7329  -23.5847   24.7819 H   0  0  0  0  0  0  0  0  0  0  0  0
  -10.2711  -23.8838   25.8096 H   0  0  0  0  0  0  0  0  0  0  0  0
  -12.1820  -26.7500   24.4241 H   0  0  0  0  0  0  0  0  0  0  0  0
  -10.3571  -28.2602   25.9040 H   0  0  0  0  0  0  0  0  0  0  0  0
  -12.4672  -25.1654   29.8543 H   0  0  0  0  0  0  0  0  0  0  0  0
  -13.1748  -22.7771   29.4863 H   0  0  0  0  0  0  0  0  0  0  0  0
  -12.9253  -24.7366   31.7839 H   0  0  0  0  0  0  0  0  0  0  0  0
  -12.3908  -21.7492   31.9615 H   0  0  0  0  0  0  0  0  0  0  0  0
  -13.0333  -23.8301   34.0335 H   0  0  0  0  0  0  0  0  0  0  0  0
  -12.7131  -22.1055   34.3309 H   0  0  0  0  0  0  0  0  0  0  0  0
  -15.1188  -21.8478   34.4593 H   0  0  0  0  0  0  0  0  0  0  0  0
  -15.4132  -23.3850   33.6557 H   0  0  0  0  0  0  0  0  0  0  0  0
  -15.2873  -21.9332   31.5362 H   0  0  0  0  0  0  0  0  0  0  0  0
  -14.4915  -20.7484   32.5121 H   0  0  0  0  0  0  0  0  0  0  0  0
  -11.0409  -23.2143   33.1810 H   0  0  0  0  0  0  0  0  0  0  0  0
   -9.4589  -23.4810   32.4905 H   0  0  0  0  0  0  0  0  0  0  0  0
   -9.6366  -25.3668   33.5500 H   0  0  0  0  0  0  0  0  0  0  0  0
  -10.8653  -26.7823   31.6539 H   0  0  0  0  0  0  0  0  0  0  0  0
   -9.1544  -26.3168   31.7158 H   0  0  0  0  0  0  0  0  0  0  0  0
   -9.5737  -23.3074   28.1301 H   0  0  0  0  0  0  0  0  0  0  0  0
  -12.0438  -22.5837   26.7323 H   0  0  0  0  0  0  0  0  0  0  0  0
  -14.1844  -25.9013   25.6793 H   0  0  0  0  0  0  0  0  0  0  0  0
  -15.3742  -24.8858   26.3547 H   0  0  0  0  0  0  0  0  0  0  0  0
  -13.8866  -23.1140   25.3048 H   0  0  0  0  0  0  0  0  0  0  0  0
  -13.9732  -27.0309   28.0523 H   0  0  0  0  0  0  0  0  0  0  0  0
  -11.7894  -27.5245   29.8173 H   0  0  0  0  0  0  0  0  0  0  0  0
  -10.8358  -22.5540   29.4194 H   0  0  0  0  0  0  0  0  0  0  0  0
  1  2  1  0
  2  3  1  0
  3  4  2  0
  4  5  1  0
  5  6  2  0
  6  7  1  0
  7  8  1  0
  8  9  1  0
  9 10  1  0
 10 11  1  0
 11 12  1  0
 12 13  1  0
  9 14  1  0
 14 15  1  0
 15 16  1  0
 16 17  1  0
 17 18  1  0
 18 19  1  0
 19 20  2  0
 20 21  1  0
 21 22  2  0
 22 23  1  0
 23 24  1  0
 22 25  1  0
 25 26  2  0
 14 27  1  0
  6  2  1  0
 27  7  1  0
 13 10  1  0
 18 14  1  0
 26 19  1  0
  1 28  1  0
  1 29  1  0
  1 30  1  0
  3 31  1  0
  4 32  1  0
  7 33  1  0
  8 34  1  0
  9 35  1  0
 10 36  1  0
 11 37  1  0
 11 38  1  0
 12 39  1  0
 12 40  1  0
 13 41  1  0
 13 42  1  0
 15 43  1  0
 15 44  1  0
 16 45  1  0
 17 46  1  0
 17 47  1  0
 20 48  1  0
 21 49  1  0
 23 50  1  0
 23 51  1  0
 24 52  1  0
 25 53  1  0
 26 54  1  0
 27 55  1  0
M  END
>  <Energy>  (734) 
1259.2053482362999

>  <compound_id>  (734) 
2014

>  <target_id>  (734) 
1

>  <reference_id>  (734) 
123

>  <inspiration_ids>  (734) 
[32, 123]

>  <energy_score>  (734) 
1123.1787928510994

>  <distance_score>  (734) 
2.1871731493467044

>  <path>  (734) 
/opt/xchem-fragalysis-2/maxwin/BulkDock/SCRATCH/505732/C2014-P123/C2014-P123.minimised.mol

>  <scratch_subdir>  (734) 
/opt/xchem-fragalysis-2/maxwin/BulkDock/SCRATCH/505732/C2014-P123

>  <fragmenstein_runtime>  (734) 
7.765881061553955

>  <fragmenstein_outcome>  (734) 
too moved

>  <fragmenstein_mode>  (734) 
expansion

>  <fragmenstein_error>  (734) 


$$$$
C2019-P33
     RDKit          3D

 43 46  0  0  0  0  0  0  0  0999 V2000
   -8.1449   -2.8219    6.7702 C   0  0  0  0  0  0  0  0  0  0  0  0
   -8.3766   -1.5547    7.6041 C   0  0  0  0  0  0  0  0  0  0  0  0
   -7.1168   -0.7960    8.0181 C   0  0  0  0  0  0  0  0  0  0  0  0
   -7.0350    0.3858    7.0521 C   0  0  0  0  0  0  0  0  0  0  0  0
   -8.4509    0.6985    6.9456 N   0  0  0  0  0  0  0  0  0  0  0  0
   -9.1713   -0.5697    6.8534 N   0  0  0  0  0  0  0  0  0  0  0  0
   -6.5113   -0.1476    5.8351 O   0  0  0  0  0  0  0  0  0  0  0  0
   -5.1143    0.1309    5.8348 C   0  0  0  0  0  0  0  0  0  0  0  0
   -4.2509   -1.1160    5.8499 C   0  0  0  0  0  0  0  0  0  0  0  0
   -4.8435   -2.4743    5.4847 C   0  0  0  0  0  0  0  0  0  0  0  0
   -4.3547   -3.0334    6.8149 C   0  0  0  0  0  0  0  0  0  0  0  0
   -3.7588   -1.6961    7.1996 C   0  0  0  0  0  0  0  0  0  0  0  0
   -4.7471    1.0425    6.9036 N   0  0  0  0  0  0  0  0  0  0  0  0
   -6.0268    1.4799    7.4796 C   0  0  0  0  0  0  0  0  0  0  0  0
   -6.1253    2.9677    7.1680 C   0  0  0  0  0  0  0  0  0  0  0  0
   -5.8157    3.9088    8.0537 N   0  0  0  0  0  0  0  0  0  0  0  0
   -5.4532    5.0229    7.3576 C   0  0  0  0  0  0  0  0  0  0  0  0
   -5.6366    4.8108    6.0186 C   0  0  0  0  0  0  0  0  0  0  0  0
   -6.1514    3.5436    5.9203 N   0  0  0  0  0  0  0  0  0  0  0  0
   -6.5700    2.9594    4.6849 C   0  0  0  0  0  0  0  0  0  0  0  0
   -7.8568   -2.5935    5.7432 H   0  0  0  0  0  0  0  0  0  0  0  0
   -7.4032   -3.4784    7.2277 H   0  0  0  0  0  0  0  0  0  0  0  0
   -9.0809   -3.3899    6.7024 H   0  0  0  0  0  0  0  0  0  0  0  0
   -8.9326   -1.8462    8.5011 H   0  0  0  0  0  0  0  0  0  0  0  0
   -6.2554   -1.4515    8.0081 H   0  0  0  0  0  0  0  0  0  0  0  0
   -7.2424   -0.4166    9.0397 H   0  0  0  0  0  0  0  0  0  0  0  0
   -8.6375    1.3036    6.1502 H   0  0  0  0  0  0  0  0  0  0  0  0
   -9.2656   -0.8825    5.8826 H   0  0  0  0  0  0  0  0  0  0  0  0
   -4.9738    0.6095    4.8664 H   0  0  0  0  0  0  0  0  0  0  0  0
   -3.4204   -0.9455    5.1569 H   0  0  0  0  0  0  0  0  0  0  0  0
   -5.9170   -2.5035    5.3365 H   0  0  0  0  0  0  0  0  0  0  0  0
   -4.4068   -2.9308    4.6037 H   0  0  0  0  0  0  0  0  0  0  0  0
   -5.1928   -3.3475    7.4269 H   0  0  0  0  0  0  0  0  0  0  0  0
   -3.6006   -3.8187    6.7917 H   0  0  0  0  0  0  0  0  0  0  0  0
   -2.6719   -1.6851    7.3081 H   0  0  0  0  0  0  0  0  0  0  0  0
   -4.1709   -1.3045    8.1320 H   0  0  0  0  0  0  0  0  0  0  0  0
   -4.2138    0.6000    7.6432 H   0  0  0  0  0  0  0  0  0  0  0  0
   -5.9686    1.4141    8.5636 H   0  0  0  0  0  0  0  0  0  0  0  0
   -5.0951    5.9129    7.8574 H   0  0  0  0  0  0  0  0  0  0  0  0
   -5.4868    5.4505    5.1606 H   0  0  0  0  0  0  0  0  0  0  0  0
   -7.2092    2.0980    4.8507 H   0  0  0  0  0  0  0  0  0  0  0  0
   -5.6999    2.6815    4.0921 H   0  0  0  0  0  0  0  0  0  0  0  0
   -7.1512    3.7034    4.1306 H   0  0  0  0  0  0  0  0  0  0  0  0
  1  2  1  0
  2  3  1  0
  3  4  1  0
  4  5  1  0
  5  6  1  0
  4  7  1  0
  7  8  1  0
  8  9  1  0
  9 10  1  0
 10 11  1  0
 11 12  1  0
  8 13  1  0
 13 14  1  0
 14 15  1  0
 15 16  2  0
 16 17  1  0
 17 18  2  0
 18 19  1  0
 19 20  1  0
  6  2  1  0
 12  9  1  0
 19 15  1  0
 14  4  1  0
  1 21  1  0
  1 22  1  0
  1 23  1  0
  2 24  1  0
  3 25  1  0
  3 26  1  0
  5 27  1  0
  6 28  1  0
  8 29  1  0
  9 30  1  0
 10 31  1  0
 10 32  1  0
 11 33  1  0
 11 34  1  0
 12 35  1  0
 12 36  1  0
 13 37  1  0
 14 38  1  0
 17 39  1  0
 18 40  1  0
 20 41  1  0
 20 42  1  0
 20 43  1  0
M  END
>  <Energy>  (735) 
103.94017856717726

>  <compound_id>  (735) 
2019

>  <target_id>  (735) 
1

>  <reference_id>  (735) 
33

>  <inspiration_ids>  (735) 
[33, 65]

>  <energy_score>  (735) 
-2.075587162176191

>  <distance_score>  (735) 
1.9292298067531863

>  <path>  (735) 
/opt/xchem-fragalysis-2/maxwin/BulkDock/SCRATCH/505732/C2019-P33/C2019-P33.minimised.mol

>  <scratch_subdir>  (735) 
/opt/xchem-fragalysis-2/maxwin/BulkDock/SCRATCH/505732/C2019-P33

>  <fragmenstein_runtime>  (735) 
8.555628776550293

>  <fragmenstein_outcome>  (735) 
too moved

>  <fragmenstein_mode>  (735) 
expansion

>  <fragmenstein_error>  (735) 


$$$$
C2019-P65
     RDKit          3D

 43 46  0  0  0  0  0  0  0  0999 V2000
   -7.9272   -2.4942    5.9219 C   0  0  0  0  0  0  0  0  0  0  0  0
   -8.5263   -1.1837    6.4610 C   0  0  0  0  0  0  0  0  0  0  0  0
   -7.5826   -0.3809    7.3369 C   0  0  0  0  0  0  0  0  0  0  0  0
   -6.9529    0.6514    6.3909 C   0  0  0  0  0  0  0  0  0  0  0  0
   -8.1611    1.0383    5.6804 N   0  0  0  0  0  0  0  0  0  0  0  0
   -8.8760   -0.2391    5.3811 N   0  0  0  0  0  0  0  0  0  0  0  0
   -6.0820    0.0079    5.4695 O   0  0  0  0  0  0  0  0  0  0  0  0
   -4.7754    0.1428    6.0045 C   0  0  0  0  0  0  0  0  0  0  0  0
   -4.2166   -1.2505    6.1521 C   0  0  0  0  0  0  0  0  0  0  0  0
   -2.8772   -1.2999    6.8707 C   0  0  0  0  0  0  0  0  0  0  0  0
   -3.3311   -2.5844    7.5432 C   0  0  0  0  0  0  0  0  0  0  0  0
   -4.7560   -2.1673    7.2640 C   0  0  0  0  0  0  0  0  0  0  0  0
   -4.8007    0.9023    7.2542 N   0  0  0  0  0  0  0  0  0  0  0  0
   -6.0507    1.6644    7.1363 C   0  0  0  0  0  0  0  0  0  0  0  0
   -5.7130    3.0553    6.6126 C   0  0  0  0  0  0  0  0  0  0  0  0
   -4.5001    3.5256    6.3372 N   0  0  0  0  0  0  0  0  0  0  0  0
   -4.5720    4.8883    6.3707 C   0  0  0  0  0  0  0  0  0  0  0  0
   -5.8708    5.2730    6.5489 C   0  0  0  0  0  0  0  0  0  0  0  0
   -6.5819    4.1112    6.6734 N   0  0  0  0  0  0  0  0  0  0  0  0
   -7.9809    4.0231    6.9532 C   0  0  0  0  0  0  0  0  0  0  0  0
   -8.6598   -3.0097    5.2904 H   0  0  0  0  0  0  0  0  0  0  0  0
   -7.0319   -2.3324    5.3166 H   0  0  0  0  0  0  0  0  0  0  0  0
   -7.6791   -3.1663    6.7493 H   0  0  0  0  0  0  0  0  0  0  0  0
   -9.4320   -1.4330    7.0262 H   0  0  0  0  0  0  0  0  0  0  0  0
   -6.9035   -1.0314    7.8656 H   0  0  0  0  0  0  0  0  0  0  0  0
   -8.1709    0.1417    8.1061 H   0  0  0  0  0  0  0  0  0  0  0  0
   -7.8675    1.4870    4.8090 H   0  0  0  0  0  0  0  0  0  0  0  0
   -8.5362   -0.6307    4.4966 H   0  0  0  0  0  0  0  0  0  0  0  0
   -4.1949    0.6747    5.2540 H   0  0  0  0  0  0  0  0  0  0  0  0
   -4.1790   -1.7710    5.1832 H   0  0  0  0  0  0  0  0  0  0  0  0
   -2.0200   -1.3733    6.2179 H   0  0  0  0  0  0  0  0  0  0  0  0
   -2.7143   -0.4973    7.5950 H   0  0  0  0  0  0  0  0  0  0  0  0
   -3.0222   -2.5923    8.5798 H   0  0  0  0  0  0  0  0  0  0  0  0
   -3.1262   -3.5524    7.0901 H   0  0  0  0  0  0  0  0  0  0  0  0
   -5.1646   -1.6727    8.1413 H   0  0  0  0  0  0  0  0  0  0  0  0
   -5.4096   -2.9785    6.9448 H   0  0  0  0  0  0  0  0  0  0  0  0
   -4.8932    0.2859    8.0572 H   0  0  0  0  0  0  0  0  0  0  0  0
   -6.4932    1.8488    8.1127 H   0  0  0  0  0  0  0  0  0  0  0  0
   -3.6924    5.5082    6.2500 H   0  0  0  0  0  0  0  0  0  0  0  0
   -6.3322    6.2483    6.6123 H   0  0  0  0  0  0  0  0  0  0  0  0
   -8.3433    4.9950    7.3017 H   0  0  0  0  0  0  0  0  0  0  0  0
   -8.1738    3.2865    7.7353 H   0  0  0  0  0  0  0  0  0  0  0  0
   -8.5052    3.7611    6.0317 H   0  0  0  0  0  0  0  0  0  0  0  0
  1  2  1  0
  2  3  1  0
  3  4  1  0
  4  5  1  0
  5  6  1  0
  4  7  1  0
  7  8  1  0
  8  9  1  0
  9 10  1  0
 10 11  1  0
 11 12  1  0
  8 13  1  0
 13 14  1  0
 14 15  1  0
 15 16  2  0
 16 17  1  0
 17 18  2  0
 18 19  1  0
 19 20  1  0
  6  2  1  0
 12  9  1  0
 19 15  1  0
 14  4  1  0
  1 21  1  0
  1 22  1  0
  1 23  1  0
  2 24  1  0
  3 25  1  0
  3 26  1  0
  5 27  1  0
  6 28  1  0
  8 29  1  0
  9 30  1  0
 10 31  1  0
 10 32  1  0
 11 33  1  0
 11 34  1  0
 12 35  1  0
 12 36  1  0
 13 37  1  0
 14 38  1  0
 17 39  1  0
 18 40  1  0
 20 41  1  0
 20 42  1  0
 20 43  1  0
M  END
>  <Energy>  (736) 
95.472498727648343

>  <compound_id>  (736) 
2019

>  <target_id>  (736) 
1

>  <reference_id>  (736) 
65

>  <inspiration_ids>  (736) 
[33, 65]

>  <energy_score>  (736) 
-10.543267001706994

>  <distance_score>  (736) 
2.2294521789935646

>  <path>  (736) 
/opt/xchem-fragalysis-2/maxwin/BulkDock/SCRATCH/505732/C2019-P65/C2019-P65.minimised.mol

>  <scratch_subdir>  (736) 
/opt/xchem-fragalysis-2/maxwin/BulkDock/SCRATCH/505732/C2019-P65

>  <fragmenstein_runtime>  (736) 
8.720072746276855

>  <fragmenstein_outcome>  (736) 
too moved

>  <fragmenstein_mode>  (736) 
expansion

>  <fragmenstein_error>  (736) 


$$$$
C728-P33
     RDKit          3D

 36 39  0  0  0  0  0  0  0  0999 V2000
  -10.4645   -1.9161    6.5927 N   0  0  0  0  0  0  0  0  0  0  0  0
   -9.3954   -0.9227    6.7041 C   0  0  0  0  0  0  0  0  0  0  0  0
   -9.4600   -0.3454    8.0741 C   0  0  0  0  0  0  0  0  0  0  0  0
   -9.1549    0.8860    8.6212 C   0  0  0  0  0  0  0  0  0  0  0  0
   -9.6974    1.0258    9.8727 N   0  0  0  0  0  0  0  0  0  0  0  0
  -10.3446   -0.0932   10.0886 C   0  0  0  0  0  0  0  0  0  0  0  0
  -10.1445   -0.9826    9.0822 N   0  0  0  0  0  0  0  0  0  0  0  0
   -8.1771   -1.6267    6.2920 N   0  0  0  0  0  0  0  0  0  0  0  0
   -7.7942   -2.9025    6.6188 C   0  0  0  0  0  0  0  0  0  0  0  0
   -6.8692   -3.2501    5.6650 C   0  0  0  0  0  0  0  0  0  0  0  0
   -6.5770   -2.1956    4.8391 N   0  0  0  0  0  0  0  0  0  0  0  0
   -7.3235   -1.2023    5.2836 C   0  0  0  0  0  0  0  0  0  0  0  0
   -7.1070    0.3427    5.0053 C   0  0  0  0  0  0  0  0  0  0  0  0
   -6.1193    0.8903    4.2733 N   0  0  0  0  0  0  0  0  0  0  0  0
   -5.5837    1.8223    5.1969 O   0  0  0  0  0  0  0  0  0  0  0  0
   -6.3143    1.6087    6.3349 C   0  0  0  0  0  0  0  0  0  0  0  0
   -5.6619    1.1869    7.6808 C   0  0  0  0  0  0  0  0  0  0  0  0
   -5.6870   -0.3425    7.9829 C   0  0  0  0  0  0  0  0  0  0  0  0
   -4.2867   -0.1989    8.5581 C   0  0  0  0  0  0  0  0  0  0  0  0
   -4.1289    1.0295    7.6570 C   0  0  0  0  0  0  0  0  0  0  0  0
   -7.5045    1.1571    6.0225 N   0  0  0  0  0  0  0  0  0  0  0  0
  -10.4497   -2.3646    5.6729 H   0  0  0  0  0  0  0  0  0  0  0  0
  -11.3640   -1.4366    6.6114 H   0  0  0  0  0  0  0  0  0  0  0  0
   -9.6080   -0.1491    5.9591 H   0  0  0  0  0  0  0  0  0  0  0  0
   -8.6569    1.7239    8.1547 H   0  0  0  0  0  0  0  0  0  0  0  0
  -10.9557   -0.3275   10.9482 H   0  0  0  0  0  0  0  0  0  0  0  0
  -10.5376   -1.9194    9.0155 H   0  0  0  0  0  0  0  0  0  0  0  0
   -8.2843   -3.4685    7.3994 H   0  0  0  0  0  0  0  0  0  0  0  0
   -6.4122   -4.2177    5.5244 H   0  0  0  0  0  0  0  0  0  0  0  0
   -6.0970    1.7659    8.4891 H   0  0  0  0  0  0  0  0  0  0  0  0
   -5.6397   -1.0113    7.1268 H   0  0  0  0  0  0  0  0  0  0  0  0
   -6.4499   -0.6854    8.6838 H   0  0  0  0  0  0  0  0  0  0  0  0
   -4.3262    0.0063    9.6219 H   0  0  0  0  0  0  0  0  0  0  0  0
   -3.5993   -1.0252    8.3633 H   0  0  0  0  0  0  0  0  0  0  0  0
   -3.5581    1.8711    8.0459 H   0  0  0  0  0  0  0  0  0  0  0  0
   -3.7262    0.7289    6.6917 H   0  0  0  0  0  0  0  0  0  0  0  0
  1  2  1  0
  2  3  1  0
  3  4  2  0
  4  5  1  0
  5  6  2  0
  6  7  1  0
  2  8  1  0
  8  9  1  0
  9 10  2  0
 10 11  1  0
 11 12  2  0
 12 13  1  0
 13 14  2  0
 14 15  1  0
 15 16  1  0
 16 17  1  0
 17 18  1  0
 18 19  1  0
 19 20  1  0
 16 21  2  0
  7  3  1  0
 12  8  1  0
 21 13  1  0
 20 17  1  0
  1 22  1  0
  1 23  1  0
  2 24  1  0
  4 25  1  0
  6 26  1  0
  7 27  1  0
  9 28  1  0
 10 29  1  0
 17 30  1  0
 18 31  1  0
 18 32  1  0
 19 33  1  0
 19 34  1  0
 20 35  1  0
 20 36  1  0
M  END
>  <Energy>  (737) 
80.776355487838856

>  <compound_id>  (737) 
728

>  <target_id>  (737) 
1

>  <reference_id>  (737) 
33

>  <inspiration_ids>  (737) 
[33, 69]

>  <energy_score>  (737) 
14.428277023896669

>  <distance_score>  (737) 
2.368594235783578

>  <path>  (737) 
/opt/xchem-fragalysis-2/maxwin/BulkDock/SCRATCH/505732/C728-P33/C728-P33.minimised.mol

>  <scratch_subdir>  (737) 
/opt/xchem-fragalysis-2/maxwin/BulkDock/SCRATCH/505732/C728-P33

>  <fragmenstein_runtime>  (737) 
29.49180269241333

>  <fragmenstein_outcome>  (737) 
too moved

>  <fragmenstein_mode>  (737) 
expansion

>  <fragmenstein_error>  (737) 


$$$$
C728-P69
     RDKit          3D

 36 39  0  0  0  0  0  0  0  0999 V2000
  -10.4793   -1.9695    7.5492 N   0  0  0  0  0  0  0  0  0  0  0  0
   -9.1978   -1.3098    7.7734 C   0  0  0  0  0  0  0  0  0  0  0  0
   -9.5230    0.0154    8.3510 C   0  0  0  0  0  0  0  0  0  0  0  0
   -9.0125    0.7115    9.4256 C   0  0  0  0  0  0  0  0  0  0  0  0
   -9.7243    1.8623    9.6459 N   0  0  0  0  0  0  0  0  0  0  0  0
  -10.6534    1.8847    8.7209 C   0  0  0  0  0  0  0  0  0  0  0  0
  -10.5778    0.7872    7.9188 N   0  0  0  0  0  0  0  0  0  0  0  0
   -8.5697   -1.3668    6.4538 N   0  0  0  0  0  0  0  0  0  0  0  0
   -8.2556   -2.5413    5.7965 C   0  0  0  0  0  0  0  0  0  0  0  0
   -7.8695   -2.1582    4.5404 C   0  0  0  0  0  0  0  0  0  0  0  0
   -7.7998   -0.7963    4.4559 N   0  0  0  0  0  0  0  0  0  0  0  0
   -8.1259   -0.3463    5.6578 C   0  0  0  0  0  0  0  0  0  0  0  0
   -7.5599    1.0418    6.2638 C   0  0  0  0  0  0  0  0  0  0  0  0
   -6.9553    1.9526    5.4704 N   0  0  0  0  0  0  0  0  0  0  0  0
   -5.6060    1.5546    5.6451 O   0  0  0  0  0  0  0  0  0  0  0  0
   -5.6635    0.5980    6.6573 C   0  0  0  0  0  0  0  0  0  0  0  0
   -5.0880   -0.8318    6.4315 C   0  0  0  0  0  0  0  0  0  0  0  0
   -3.6136   -1.1902    6.5534 C   0  0  0  0  0  0  0  0  0  0  0  0
   -4.0785   -2.5522    7.0583 C   0  0  0  0  0  0  0  0  0  0  0  0
   -5.2965   -1.7830    7.6081 C   0  0  0  0  0  0  0  0  0  0  0  0
   -6.7654    0.7762    7.3533 N   0  0  0  0  0  0  0  0  0  0  0  0
  -10.3172   -2.9199    7.2218 H   0  0  0  0  0  0  0  0  0  0  0  0
  -10.8846   -2.1587    8.4787 H   0  0  0  0  0  0  0  0  0  0  0  0
   -8.5692   -1.8982    8.4498 H   0  0  0  0  0  0  0  0  0  0  0  0
   -8.1795    0.4368   10.0583 H   0  0  0  0  0  0  0  0  0  0  0  0
  -11.4035    2.6534    8.5932 H   0  0  0  0  0  0  0  0  0  0  0  0
  -11.2152    0.5348    7.1745 H   0  0  0  0  0  0  0  0  0  0  0  0
   -8.4034   -3.5168    6.2387 H   0  0  0  0  0  0  0  0  0  0  0  0
   -7.6175   -2.7892    3.6982 H   0  0  0  0  0  0  0  0  0  0  0  0
   -5.4643   -1.2276    5.4804 H   0  0  0  0  0  0  0  0  0  0  0  0
   -3.1155   -1.2229    5.5876 H   0  0  0  0  0  0  0  0  0  0  0  0
   -3.0276   -0.6742    7.3190 H   0  0  0  0  0  0  0  0  0  0  0  0
   -3.4135   -3.0260    7.7732 H   0  0  0  0  0  0  0  0  0  0  0  0
   -4.3198   -3.2690    6.2659 H   0  0  0  0  0  0  0  0  0  0  0  0
   -6.2283   -2.3432    7.6142 H   0  0  0  0  0  0  0  0  0  0  0  0
   -5.1416   -1.3126    8.5859 H   0  0  0  0  0  0  0  0  0  0  0  0
  1  2  1  0
  2  3  1  0
  3  4  2  0
  4  5  1  0
  5  6  2  0
  6  7  1  0
  2  8  1  0
  8  9  1  0
  9 10  2  0
 10 11  1  0
 11 12  2  0
 12 13  1  0
 13 14  2  0
 14 15  1  0
 15 16  1  0
 16 17  1  0
 17 18  1  0
 18 19  1  0
 19 20  1  0
 16 21  2  0
  7  3  1  0
 12  8  1  0
 21 13  1  0
 20 17  1  0
  1 22  1  0
  1 23  1  0
  2 24  1  0
  4 25  1  0
  6 26  1  0
  7 27  1  0
  9 28  1  0
 10 29  1  0
 17 30  1  0
 18 31  1  0
 18 32  1  0
 19 33  1  0
 19 34  1  0
 20 35  1  0
 20 36  1  0
M  END
>  <Energy>  (738) 
108.02890839544982

>  <compound_id>  (738) 
728

>  <target_id>  (738) 
1

>  <reference_id>  (738) 
69

>  <inspiration_ids>  (738) 
[33, 69]

>  <energy_score>  (738) 
41.68082993150523

>  <distance_score>  (738) 
2.552669509776842

>  <path>  (738) 
/opt/xchem-fragalysis-2/maxwin/BulkDock/SCRATCH/505732/C728-P69/C728-P69.minimised.mol

>  <scratch_subdir>  (738) 
/opt/xchem-fragalysis-2/maxwin/BulkDock/SCRATCH/505732/C728-P69

>  <fragmenstein_runtime>  (738) 
27.928596019744873

>  <fragmenstein_outcome>  (738) 
too moved

>  <fragmenstein_mode>  (738) 
expansion

>  <fragmenstein_error>  (738) 


$$$$
C2025-P33
     RDKit          3D

 68 72  0  0  0  0  0  0  0  0999 V2000
   -5.2401   -0.6667    7.2811 C   0  0  0  0  0  0  0  0  0  0  0  0
   -6.6958   -0.7487    7.4162 N   0  0  0  0  0  0  0  0  0  0  0  0
   -7.1628   -1.9696    6.7551 C   0  0  0  0  0  0  0  0  0  0  0  0
   -7.6387    0.6844    7.1607 S   0  0  0  0  0  0  0  0  0  0  0  0
   -8.0532    0.5598    5.7782 O   0  0  0  0  0  0  0  0  0  0  0  0
   -6.6968    1.7953    7.6572 N   0  0  0  0  0  0  0  0  0  0  0  0
   -6.9816    3.2177    7.3702 C   0  0  0  0  0  0  0  0  0  0  0  0
   -5.8544    3.7952    6.4788 C   0  0  0  0  0  0  0  0  0  0  0  0
   -5.5654    3.0161    5.2482 N   0  0  0  0  0  0  0  0  0  0  0  0
   -6.6656    3.0375    4.2743 C   0  0  0  0  0  0  0  0  0  0  0  0
   -6.8540    4.3888    3.7657 N   0  0  0  0  0  0  0  0  0  0  0  0
   -7.9330    5.1863    4.0761 C   0  0  0  0  0  0  0  0  0  0  0  0
   -7.7293    6.3543    3.3878 C   0  0  0  0  0  0  0  0  0  0  0  0
   -6.5803    6.2839    2.6510 N   0  0  0  0  0  0  0  0  0  0  0  0
   -6.0690    5.0822    2.8712 C   0  0  0  0  0  0  0  0  0  0  0  0
   -4.7502    4.5728    2.1781 C   0  0  0  0  0  0  0  0  0  0  0  0
   -4.2449    3.3446    2.3551 N   0  0  0  0  0  0  0  0  0  0  0  0
   -3.0969    3.3419    1.5685 O   0  0  0  0  0  0  0  0  0  0  0  0
   -3.0208    4.5724    0.9822 C   0  0  0  0  0  0  0  0  0  0  0  0
   -1.8808    4.9984    0.0195 C   0  0  0  0  0  0  0  0  0  0  0  0
   -0.4499    4.6696    0.5114 C   0  0  0  0  0  0  0  0  0  0  0  0
   -0.1116    4.3110   -0.9510 C   0  0  0  0  0  0  0  0  0  0  0  0
   -1.6140    4.0197   -1.1495 C   0  0  0  0  0  0  0  0  0  0  0  0
   -4.0182    5.3580    1.3170 N   0  0  0  0  0  0  0  0  0  0  0  0
   -9.0724    0.5135    8.2003 C   0  0  0  0  0  0  0  0  0  0  0  0
   -8.9201    1.1197    9.5848 C   0  0  0  0  0  0  0  0  0  0  0  0
  -10.3419    1.4658    9.9709 C   0  0  0  0  0  0  0  0  0  0  0  0
  -10.8477    1.9982    8.7130 N   0  0  0  0  0  0  0  0  0  0  0  0
  -12.2513    2.3837    8.6582 C   0  0  0  0  0  0  0  0  0  0  0  0
  -13.1973    1.3860    9.2192 C   0  0  0  0  0  0  0  0  0  0  0  0
  -13.7484    0.2885    8.5949 C   0  0  0  0  0  0  0  0  0  0  0  0
  -14.6260   -0.3289    9.4229 O   0  0  0  0  0  0  0  0  0  0  0  0
  -14.6629    0.3363   10.6363 N   0  0  0  0  0  0  0  0  0  0  0  0
  -13.8079    1.3490   10.4972 C   0  0  0  0  0  0  0  0  0  0  0  0
  -13.5040    2.5865   11.8835 Br  0  0  0  0  0  0  0  0  0  0  0  0
  -10.3352    1.1601    7.6265 C   0  0  0  0  0  0  0  0  0  0  0  0
   -4.7548   -1.6159    7.5370 H   0  0  0  0  0  0  0  0  0  0  0  0
   -4.8205    0.0710    7.9723 H   0  0  0  0  0  0  0  0  0  0  0  0
   -4.9480   -0.3971    6.2602 H   0  0  0  0  0  0  0  0  0  0  0  0
   -7.0063   -1.9227    5.6720 H   0  0  0  0  0  0  0  0  0  0  0  0
   -8.2300   -2.1328    6.9369 H   0  0  0  0  0  0  0  0  0  0  0  0
   -6.6447   -2.8532    7.1410 H   0  0  0  0  0  0  0  0  0  0  0  0
   -7.0069    3.7726    8.3128 H   0  0  0  0  0  0  0  0  0  0  0  0
   -7.9594    3.3465    6.8947 H   0  0  0  0  0  0  0  0  0  0  0  0
   -6.0528    4.8471    6.2499 H   0  0  0  0  0  0  0  0  0  0  0  0
   -4.9257    3.7935    7.0643 H   0  0  0  0  0  0  0  0  0  0  0  0
   -5.5201    2.0436    5.5881 H   0  0  0  0  0  0  0  0  0  0  0  0
   -7.6172    2.7104    4.6980 H   0  0  0  0  0  0  0  0  0  0  0  0
   -6.4480    2.3862    3.4225 H   0  0  0  0  0  0  0  0  0  0  0  0
   -8.7217    4.8671    4.7425 H   0  0  0  0  0  0  0  0  0  0  0  0
   -8.3509    7.2403    3.3780 H   0  0  0  0  0  0  0  0  0  0  0  0
   -1.9875    6.0395   -0.3132 H   0  0  0  0  0  0  0  0  0  0  0  0
   -0.3752    3.8163    1.1969 H   0  0  0  0  0  0  0  0  0  0  0  0
    0.1126    5.5091    0.9303 H   0  0  0  0  0  0  0  0  0  0  0  0
    0.5616    3.4610   -1.0894 H   0  0  0  0  0  0  0  0  0  0  0  0
    0.2549    5.1596   -1.5404 H   0  0  0  0  0  0  0  0  0  0  0  0
   -2.0248    4.3163   -2.1180 H   0  0  0  0  0  0  0  0  0  0  0  0
   -1.8839    2.9746   -0.9552 H   0  0  0  0  0  0  0  0  0  0  0  0
   -9.2610   -0.5621    8.3027 H   0  0  0  0  0  0  0  0  0  0  0  0
   -8.3297    2.0378    9.5756 H   0  0  0  0  0  0  0  0  0  0  0  0
   -8.4450    0.4288   10.2811 H   0  0  0  0  0  0  0  0  0  0  0  0
  -10.3649    2.2064   10.7753 H   0  0  0  0  0  0  0  0  0  0  0  0
  -10.8667    0.5590   10.2931 H   0  0  0  0  0  0  0  0  0  0  0  0
  -12.5287    2.6161    7.6217 H   0  0  0  0  0  0  0  0  0  0  0  0
  -12.3647    3.3344    9.1926 H   0  0  0  0  0  0  0  0  0  0  0  0
  -13.6418   -0.1625    7.6182 H   0  0  0  0  0  0  0  0  0  0  0  0
  -11.0474    0.3770    7.3420 H   0  0  0  0  0  0  0  0  0  0  0  0
  -10.1445    1.7809    6.7454 H   0  0  0  0  0  0  0  0  0  0  0  0
  1  2  1  0
  2  3  1  0
  2  4  1  0
  4  5  2  0
  4  6  2  0
  6  7  1  0
  7  8  1  0
  8  9  1  0
  9 10  1  0
 10 11  1  0
 11 12  1  0
 12 13  2  0
 13 14  1  0
 14 15  2  0
 15 16  1  0
 16 17  2  0
 17 18  1  0
 18 19  1  0
 19 20  1  0
 20 21  1  0
 21 22  1  0
 22 23  1  0
 19 24  2  0
  4 25  1  0
 25 26  1  0
 26 27  1  0
 27 28  1  0
 28 29  1  0
 29 30  1  0
 30 31  2  0
 31 32  1  0
 32 33  1  0
 33 34  2  0
 34 35  1  0
 28 36  1  0
 15 11  1  0
 24 16  1  0
 36 25  1  0
 23 20  1  0
 34 30  1  0
  1 37  1  0
  1 38  1  0
  1 39  1  0
  3 40  1  0
  3 41  1  0
  3 42  1  0
  7 43  1  0
  7 44  1  0
  8 45  1  0
  8 46  1  0
  9 47  1  0
 10 48  1  0
 10 49  1  0
 12 50  1  0
 13 51  1  0
 20 52  1  0
 21 53  1  0
 21 54  1  0
 22 55  1  0
 22 56  1  0
 23 57  1  0
 23 58  1  0
 25 59  1  0
 26 60  1  0
 26 61  1  0
 27 62  1  0
 27 63  1  0
 29 64  1  0
 29 65  1  0
 31 66  1  0
 36 67  1  0
 36 68  1  0
M  END
>  <Energy>  (739) 
-7.9801837270772964

>  <compound_id>  (739) 
2025

>  <target_id>  (739) 
1

>  <reference_id>  (739) 
33

>  <inspiration_ids>  (739) 
[33, 127]

>  <energy_score>  (739) 
-129.52082526060326

>  <distance_score>  (739) 
2.235403289799896

>  <path>  (739) 
/opt/xchem-fragalysis-2/maxwin/BulkDock/SCRATCH/505732/C2025-P33/C2025-P33.minimised.mol

>  <scratch_subdir>  (739) 
/opt/xchem-fragalysis-2/maxwin/BulkDock/SCRATCH/505732/C2025-P33

>  <fragmenstein_runtime>  (739) 
42.618788719177246

>  <fragmenstein_outcome>  (739) 
too moved

>  <fragmenstein_mode>  (739) 
expansion

>  <fragmenstein_error>  (739) 


$$$$
C2025-P127
     RDKit          3D

 68 72  0  0  0  0  0  0  0  0999 V2000
   -9.6569    5.0671    5.8660 C   0  0  0  0  0  0  0  0  0  0  0  0
   -9.6123    5.0302    7.3176 N   0  0  0  0  0  0  0  0  0  0  0  0
   -9.5100    6.3874    7.8475 C   0  0  0  0  0  0  0  0  0  0  0  0
   -8.8591    3.7356    8.1675 S   0  0  0  0  0  0  0  0  0  0  0  0
   -9.1562    4.0590    9.5426 O   0  0  0  0  0  0  0  0  0  0  0  0
   -7.4721    3.6150    7.5393 N   0  0  0  0  0  0  0  0  0  0  0  0
   -6.3704    4.5436    7.6696 C   0  0  0  0  0  0  0  0  0  0  0  0
   -5.4735    4.3506    6.4160 C   0  0  0  0  0  0  0  0  0  0  0  0
   -4.8994    3.0092    6.1647 N   0  0  0  0  0  0  0  0  0  0  0  0
   -5.8108    1.9510    5.6830 C   0  0  0  0  0  0  0  0  0  0  0  0
   -6.4185    2.3241    4.4102 N   0  0  0  0  0  0  0  0  0  0  0  0
   -7.7171    2.7430    4.2621 C   0  0  0  0  0  0  0  0  0  0  0  0
   -7.8159    3.2283    2.9861 C   0  0  0  0  0  0  0  0  0  0  0  0
   -6.6477    3.0265    2.3173 N   0  0  0  0  0  0  0  0  0  0  0  0
   -5.8647    2.3516    3.1476 C   0  0  0  0  0  0  0  0  0  0  0  0
   -4.5406    1.6764    2.6567 C   0  0  0  0  0  0  0  0  0  0  0  0
   -3.8648    0.7556    3.3560 N   0  0  0  0  0  0  0  0  0  0  0  0
   -2.7634    0.4879    2.5503 O   0  0  0  0  0  0  0  0  0  0  0  0
   -2.9139    1.2202    1.4103 C   0  0  0  0  0  0  0  0  0  0  0  0
   -1.9118    1.1940    0.2265 C   0  0  0  0  0  0  0  0  0  0  0  0
   -0.9515    2.4070    0.1726 C   0  0  0  0  0  0  0  0  0  0  0  0
    0.1417    1.4232   -0.2945 C   0  0  0  0  0  0  0  0  0  0  0  0
   -0.6517    0.3165    0.4309 C   0  0  0  0  0  0  0  0  0  0  0  0
   -4.0055    1.9453    1.4159 N   0  0  0  0  0  0  0  0  0  0  0  0
   -9.7129    2.1918    7.7322 C   0  0  0  0  0  0  0  0  0  0  0  0
   -9.4675    1.0746    8.7311 C   0  0  0  0  0  0  0  0  0  0  0  0
  -10.6890    1.1373    9.6313 C   0  0  0  0  0  0  0  0  0  0  0  0
  -11.7795    1.4466    8.6908 N   0  0  0  0  0  0  0  0  0  0  0  0
  -12.9240    2.0711    9.3547 C   0  0  0  0  0  0  0  0  0  0  0  0
  -13.8447    1.0515    9.8883 C   0  0  0  0  0  0  0  0  0  0  0  0
  -14.6885    0.2373    9.1669 C   0  0  0  0  0  0  0  0  0  0  0  0
  -15.4905   -0.4583   10.0062 O   0  0  0  0  0  0  0  0  0  0  0  0
  -15.1626   -0.1467   11.3127 N   0  0  0  0  0  0  0  0  0  0  0  0
  -14.1593    0.7269   11.2217 C   0  0  0  0  0  0  0  0  0  0  0  0
  -13.3313    1.4641   12.7413 Br  0  0  0  0  0  0  0  0  0  0  0  0
  -11.2140    2.3896    7.7226 C   0  0  0  0  0  0  0  0  0  0  0  0
  -10.0327    4.1201    5.4710 H   0  0  0  0  0  0  0  0  0  0  0  0
   -8.6726    5.2776    5.4378 H   0  0  0  0  0  0  0  0  0  0  0  0
  -10.3543    5.8311    5.5031 H   0  0  0  0  0  0  0  0  0  0  0  0
  -10.2975    7.0303    7.4378 H   0  0  0  0  0  0  0  0  0  0  0  0
   -9.6423    6.4097    8.9337 H   0  0  0  0  0  0  0  0  0  0  0  0
   -8.5429    6.8417    7.6136 H   0  0  0  0  0  0  0  0  0  0  0  0
   -5.8022    4.3348    8.5808 H   0  0  0  0  0  0  0  0  0  0  0  0
   -6.7051    5.5821    7.7074 H   0  0  0  0  0  0  0  0  0  0  0  0
   -5.9978    4.7105    5.5232 H   0  0  0  0  0  0  0  0  0  0  0  0
   -4.6196    5.0292    6.5353 H   0  0  0  0  0  0  0  0  0  0  0  0
   -4.5212    2.6709    7.0524 H   0  0  0  0  0  0  0  0  0  0  0  0
   -5.2401    1.0341    5.5127 H   0  0  0  0  0  0  0  0  0  0  0  0
   -6.5960    1.6839    6.3927 H   0  0  0  0  0  0  0  0  0  0  0  0
   -8.4122    2.7075    5.0766 H   0  0  0  0  0  0  0  0  0  0  0  0
   -8.6653    3.7009    2.5109 H   0  0  0  0  0  0  0  0  0  0  0  0
   -2.4143    1.0005   -0.7299 H   0  0  0  0  0  0  0  0  0  0  0  0
   -0.7364    2.8706    1.1432 H   0  0  0  0  0  0  0  0  0  0  0  0
   -1.2153    3.1900   -0.5434 H   0  0  0  0  0  0  0  0  0  0  0  0
    1.1485    1.6145    0.0846 H   0  0  0  0  0  0  0  0  0  0  0  0
    0.1855    1.2951   -1.3822 H   0  0  0  0  0  0  0  0  0  0  0  0
   -0.6656   -0.6562   -0.0683 H   0  0  0  0  0  0  0  0  0  0  0  0
   -0.3398    0.1752    1.4726 H   0  0  0  0  0  0  0  0  0  0  0  0
   -9.3562    1.8898    6.7462 H   0  0  0  0  0  0  0  0  0  0  0  0
   -8.5310    1.1656    9.2833 H   0  0  0  0  0  0  0  0  0  0  0  0
   -9.4520    0.1105    8.2066 H   0  0  0  0  0  0  0  0  0  0  0  0
  -10.5558    1.9197   10.3880 H   0  0  0  0  0  0  0  0  0  0  0  0
  -10.8582    0.1845   10.1429 H   0  0  0  0  0  0  0  0  0  0  0  0
  -13.5082    2.6465    8.6207 H   0  0  0  0  0  0  0  0  0  0  0  0
  -12.6170    2.7997   10.1146 H   0  0  0  0  0  0  0  0  0  0  0  0
  -14.8534    0.0660    8.1141 H   0  0  0  0  0  0  0  0  0  0  0  0
  -11.6220    2.1630    6.7307 H   0  0  0  0  0  0  0  0  0  0  0  0
  -11.4951    3.4231    7.9514 H   0  0  0  0  0  0  0  0  0  0  0  0
  1  2  1  0
  2  3  1  0
  2  4  1  0
  4  5  2  0
  4  6  2  0
  6  7  1  0
  7  8  1  0
  8  9  1  0
  9 10  1  0
 10 11  1  0
 11 12  1  0
 12 13  2  0
 13 14  1  0
 14 15  2  0
 15 16  1  0
 16 17  2  0
 17 18  1  0
 18 19  1  0
 19 20  1  0
 20 21  1  0
 21 22  1  0
 22 23  1  0
 19 24  2  0
  4 25  1  0
 25 26  1  0
 26 27  1  0
 27 28  1  0
 28 29  1  0
 29 30  1  0
 30 31  2  0
 31 32  1  0
 32 33  1  0
 33 34  2  0
 34 35  1  0
 28 36  1  0
 15 11  1  0
 24 16  1  0
 36 25  1  0
 23 20  1  0
 34 30  1  0
  1 37  1  0
  1 38  1  0
  1 39  1  0
  3 40  1  0
  3 41  1  0
  3 42  1  0
  7 43  1  0
  7 44  1  0
  8 45  1  0
  8 46  1  0
  9 47  1  0
 10 48  1  0
 10 49  1  0
 12 50  1  0
 13 51  1  0
 20 52  1  0
 21 53  1  0
 21 54  1  0
 22 55  1  0
 22 56  1  0
 23 57  1  0
 23 58  1  0
 25 59  1  0
 26 60  1  0
 26 61  1  0
 27 62  1  0
 27 63  1  0
 29 64  1  0
 29 65  1  0
 31 66  1  0
 36 67  1  0
 36 68  1  0
M  END
>  <Energy>  (740) 
-1.471943828227263

>  <compound_id>  (740) 
2025

>  <target_id>  (740) 
1

>  <reference_id>  (740) 
127

>  <inspiration_ids>  (740) 
[33, 127]

>  <energy_score>  (740) 
-102.08095918002306

>  <distance_score>  (740) 
1.7079876040083284

>  <path>  (740) 
/opt/xchem-fragalysis-2/maxwin/BulkDock/SCRATCH/505732/C2025-P127/C2025-P127.minimised.mol

>  <scratch_subdir>  (740) 
/opt/xchem-fragalysis-2/maxwin/BulkDock/SCRATCH/505732/C2025-P127

>  <fragmenstein_runtime>  (740) 
28.699419736862183

>  <fragmenstein_outcome>  (740) 
too moved

>  <fragmenstein_mode>  (740) 
expansion

>  <fragmenstein_error>  (740) 


$$$$
C2027-P33
     RDKit          3D

 64 68  0  0  0  0  0  0  0  0999 V2000
   -7.5429    5.0056    8.4462 C   0  0  0  0  0  0  0  0  0  0  0  0
   -6.2767    5.2114    7.7911 N   0  0  0  0  0  0  0  0  0  0  0  0
   -5.6043    6.4070    7.7951 C   0  0  0  0  0  0  0  0  0  0  0  0
   -4.4982    6.1990    7.0099 C   0  0  0  0  0  0  0  0  0  0  0  0
   -4.4943    4.9243    6.5159 N   0  0  0  0  0  0  0  0  0  0  0  0
   -5.5504    4.3225    7.0317 C   0  0  0  0  0  0  0  0  0  0  0  0
   -5.8563    2.9492    6.7677 C   0  0  0  0  0  0  0  0  0  0  0  0
   -4.9744    1.9910    6.5879 N   0  0  0  0  0  0  0  0  0  0  0  0
   -5.6615    0.8554    6.2129 C   0  0  0  0  0  0  0  0  0  0  0  0
   -4.8539   -0.4140    5.7595 C   0  0  0  0  0  0  0  0  0  0  0  0
   -5.5069   -1.6566    5.1556 C   0  0  0  0  0  0  0  0  0  0  0  0
   -4.7333   -2.5284    6.1562 C   0  0  0  0  0  0  0  0  0  0  0  0
   -4.2552   -1.2672    6.8950 C   0  0  0  0  0  0  0  0  0  0  0  0
   -7.0164    1.1217    6.2153 C   0  0  0  0  0  0  0  0  0  0  0  0
   -8.2446    0.3621    5.8630 C   0  0  0  0  0  0  0  0  0  0  0  0
   -8.5965   -0.7046    6.8326 C   0  0  0  0  0  0  0  0  0  0  0  0
   -7.7321   -1.6311    7.4358 C   0  0  0  0  0  0  0  0  0  0  0  0
   -8.3559   -2.6270    8.0326 N   0  0  0  0  0  0  0  0  0  0  0  0
   -9.6220   -2.2334    8.0030 N   0  0  0  0  0  0  0  0  0  0  0  0
   -9.8087   -1.0216    7.4077 C   0  0  0  0  0  0  0  0  0  0  0  0
  -11.1106   -0.3338    7.5517 C   0  0  0  0  0  0  0  0  0  0  0  0
  -11.1145    0.4424    8.8807 C   0  0  0  0  0  0  0  0  0  0  0  0
  -12.4624    0.9079    9.1878 N   0  0  0  0  0  0  0  0  0  0  0  0
  -12.8300    1.5090   10.6940 S   0  0  0  0  0  0  0  0  0  0  0  0
  -12.1412    0.7608   11.7157 O   0  0  0  0  0  0  0  0  0  0  0  0
  -14.2649    1.6699   10.7023 O   0  0  0  0  0  0  0  0  0  0  0  0
  -12.1407    3.0535   10.5696 N   0  0  0  0  0  0  0  0  0  0  0  0
  -10.6586    3.1471   10.8313 C   0  0  0  0  0  0  0  0  0  0  0  0
  -10.3378    3.8684   12.1583 C   0  0  0  0  0  0  0  0  0  0  0  0
  -11.2608    3.4869   13.2348 N   0  0  0  0  0  0  0  0  0  0  0  0
  -12.6278    3.9355   12.8800 C   0  0  0  0  0  0  0  0  0  0  0  0
  -12.8792    4.0965   11.3637 C   0  0  0  0  0  0  0  0  0  0  0  0
   -7.1087    2.4478    6.5794 N   0  0  0  0  0  0  0  0  0  0  0  0
   -7.6190    5.6763    9.3060 H   0  0  0  0  0  0  0  0  0  0  0  0
   -8.3355    5.2338    7.7287 H   0  0  0  0  0  0  0  0  0  0  0  0
   -7.6282    3.9713    8.7792 H   0  0  0  0  0  0  0  0  0  0  0  0
   -5.9513    7.2736    8.3403 H   0  0  0  0  0  0  0  0  0  0  0  0
   -3.7075    6.8974    6.7684 H   0  0  0  0  0  0  0  0  0  0  0  0
   -4.0685   -0.1140    5.0644 H   0  0  0  0  0  0  0  0  0  0  0  0
   -5.2184   -1.8371    4.1120 H   0  0  0  0  0  0  0  0  0  0  0  0
   -6.5877   -1.7593    5.1871 H   0  0  0  0  0  0  0  0  0  0  0  0
   -5.3394   -3.2165    6.7499 H   0  0  0  0  0  0  0  0  0  0  0  0
   -3.9516   -3.1101    5.6755 H   0  0  0  0  0  0  0  0  0  0  0  0
   -4.6945   -1.1192    7.8867 H   0  0  0  0  0  0  0  0  0  0  0  0
   -3.1703   -1.1990    7.0120 H   0  0  0  0  0  0  0  0  0  0  0  0
   -8.1184   -0.0837    4.8688 H   0  0  0  0  0  0  0  0  0  0  0  0
   -9.0910    1.0544    5.7639 H   0  0  0  0  0  0  0  0  0  0  0  0
   -6.6687   -1.6544    7.4563 H   0  0  0  0  0  0  0  0  0  0  0  0
  -10.3045   -2.7999    8.5009 H   0  0  0  0  0  0  0  0  0  0  0  0
  -11.2857    0.3522    6.7150 H   0  0  0  0  0  0  0  0  0  0  0  0
  -11.9306   -1.0632    7.5353 H   0  0  0  0  0  0  0  0  0  0  0  0
  -10.7509   -0.1931    9.6962 H   0  0  0  0  0  0  0  0  0  0  0  0
  -10.4396    1.2981    8.7788 H   0  0  0  0  0  0  0  0  0  0  0  0
  -12.9773    1.3919    8.4563 H   0  0  0  0  0  0  0  0  0  0  0  0
  -10.2019    2.1538   10.8557 H   0  0  0  0  0  0  0  0  0  0  0  0
  -10.2005    3.6865    9.9949 H   0  0  0  0  0  0  0  0  0  0  0  0
   -9.3173    3.6380   12.4660 H   0  0  0  0  0  0  0  0  0  0  0  0
  -10.3624    4.9567   12.0180 H   0  0  0  0  0  0  0  0  0  0  0  0
  -11.2942    2.4608   13.2647 H   0  0  0  0  0  0  0  0  0  0  0  0
  -12.8297    4.8921   13.3752 H   0  0  0  0  0  0  0  0  0  0  0  0
  -13.3400    3.2144   13.2979 H   0  0  0  0  0  0  0  0  0  0  0  0
  -13.9504    4.0825   11.1390 H   0  0  0  0  0  0  0  0  0  0  0  0
  -12.5242    5.0795   11.0267 H   0  0  0  0  0  0  0  0  0  0  0  0
   -7.9612    2.9849    6.6036 H   0  0  0  0  0  0  0  0  0  0  0  0
  1  2  1  0
  2  3  1  0
  3  4  2  0
  4  5  1  0
  5  6  2  0
  6  7  1  0
  7  8  2  0
  8  9  1  0
  9 10  1  0
 10 11  1  0
 11 12  1  0
 12 13  1  0
  9 14  2  0
 14 15  1  0
 15 16  1  0
 16 17  1  0
 17 18  2  0
 18 19  1  0
 19 20  1  0
 20 21  1  0
 21 22  1  0
 22 23  1  0
 23 24  1  0
 24 25  2  0
 24 26  2  0
 24 27  1  0
 27 28  1  0
 28 29  1  0
 29 30  1  0
 30 31  1  0
 31 32  1  0
 14 33  1  0
  6  2  1  0
 33  7  1  0
 13 10  1  0
 20 16  2  0
 32 27  1  0
  1 34  1  0
  1 35  1  0
  1 36  1  0
  3 37  1  0
  4 38  1  0
 10 39  1  0
 11 40  1  0
 11 41  1  0
 12 42  1  0
 12 43  1  0
 13 44  1  0
 13 45  1  0
 15 46  1  0
 15 47  1  0
 17 48  1  0
 19 49  1  0
 21 50  1  0
 21 51  1  0
 22 52  1  0
 22 53  1  0
 23 54  1  0
 28 55  1  0
 28 56  1  0
 29 57  1  0
 29 58  1  0
 30 59  1  0
 31 60  1  0
 31 61  1  0
 32 62  1  0
 32 63  1  0
 33 64  1  0
M  END
>  <Energy>  (741) 
-41.777425092092066

>  <compound_id>  (741) 
2027

>  <target_id>  (741) 
1

>  <reference_id>  (741) 
33

>  <inspiration_ids>  (741) 
[33, 143]

>  <energy_score>  (741) 
-44.75618823182515

>  <distance_score>  (741) 
1.4128665378520826

>  <path>  (741) 
/opt/xchem-fragalysis-2/maxwin/BulkDock/SCRATCH/505732/C2027-P33/C2027-P33.minimised.mol

>  <scratch_subdir>  (741) 
/opt/xchem-fragalysis-2/maxwin/BulkDock/SCRATCH/505732/C2027-P33

>  <fragmenstein_runtime>  (741) 
20.2606418132782

>  <fragmenstein_outcome>  (741) 
too moved

>  <fragmenstein_mode>  (741) 
expansion

>  <fragmenstein_error>  (741) 


$$$$
C2027-P143
     RDKit          3D

 64 68  0  0  0  0  0  0  0  0999 V2000
   -4.2929    4.9352    7.9154 C   0  0  0  0  0  0  0  0  0  0  0  0
   -5.7085    5.1850    8.0245 N   0  0  0  0  0  0  0  0  0  0  0  0
   -6.2621    6.3141    8.5699 C   0  0  0  0  0  0  0  0  0  0  0  0
   -7.6185    6.1521    8.4329 C   0  0  0  0  0  0  0  0  0  0  0  0
   -7.9044    4.9603    7.8210 N   0  0  0  0  0  0  0  0  0  0  0  0
   -6.7346    4.3855    7.5862 C   0  0  0  0  0  0  0  0  0  0  0  0
   -6.6285    3.0936    6.9845 C   0  0  0  0  0  0  0  0  0  0  0  0
   -5.5509    2.3992    6.6959 N   0  0  0  0  0  0  0  0  0  0  0  0
   -6.0046    1.2203    6.1012 C   0  0  0  0  0  0  0  0  0  0  0  0
   -4.9986    0.1837    5.5203 C   0  0  0  0  0  0  0  0  0  0  0  0
   -4.6027   -0.9824    6.4570 C   0  0  0  0  0  0  0  0  0  0  0  0
   -4.4437   -1.8367    5.1884 C   0  0  0  0  0  0  0  0  0  0  0  0
   -5.3859   -0.8579    4.4721 C   0  0  0  0  0  0  0  0  0  0  0  0
   -7.3823    1.1889    6.0777 C   0  0  0  0  0  0  0  0  0  0  0  0
   -8.4070    0.2320    5.5609 C   0  0  0  0  0  0  0  0  0  0  0  0
   -8.5999   -0.9427    6.4598 C   0  0  0  0  0  0  0  0  0  0  0  0
   -7.8321   -2.1277    6.5268 C   0  0  0  0  0  0  0  0  0  0  0  0
   -8.2287   -2.9568    7.4807 N   0  0  0  0  0  0  0  0  0  0  0  0
   -9.3140   -2.3586    7.9685 N   0  0  0  0  0  0  0  0  0  0  0  0
   -9.6239   -1.1792    7.3563 C   0  0  0  0  0  0  0  0  0  0  0  0
  -10.8987   -0.4807    7.6545 C   0  0  0  0  0  0  0  0  0  0  0  0
  -10.9524    0.1083    9.0629 C   0  0  0  0  0  0  0  0  0  0  0  0
  -12.3013    0.6634    9.2704 N   0  0  0  0  0  0  0  0  0  0  0  0
  -12.6412    1.4915   10.6775 S   0  0  0  0  0  0  0  0  0  0  0  0
  -11.9339    0.8723   11.7708 O   0  0  0  0  0  0  0  0  0  0  0  0
  -14.0812    1.6043   10.6941 O   0  0  0  0  0  0  0  0  0  0  0  0
  -11.9776    3.0026   10.3386 N   0  0  0  0  0  0  0  0  0  0  0  0
  -10.4962    3.1630   10.5689 C   0  0  0  0  0  0  0  0  0  0  0  0
  -10.1880    3.9914   11.8346 C   0  0  0  0  0  0  0  0  0  0  0  0
  -11.1399    3.7111   12.9140 N   0  0  0  0  0  0  0  0  0  0  0  0
  -12.4857    4.1741   12.4936 C   0  0  0  0  0  0  0  0  0  0  0  0
  -12.7220    4.1407   10.9677 C   0  0  0  0  0  0  0  0  0  0  0  0
   -7.7481    2.3807    6.6585 N   0  0  0  0  0  0  0  0  0  0  0  0
   -4.0538    4.7209    6.8717 H   0  0  0  0  0  0  0  0  0  0  0  0
   -3.7400    5.8224    8.2358 H   0  0  0  0  0  0  0  0  0  0  0  0
   -4.0390    4.0959    8.5653 H   0  0  0  0  0  0  0  0  0  0  0  0
   -5.6665    7.1107    8.9934 H   0  0  0  0  0  0  0  0  0  0  0  0
   -8.4023    6.8313    8.7422 H   0  0  0  0  0  0  0  0  0  0  0  0
   -4.1381    0.7203    5.1033 H   0  0  0  0  0  0  0  0  0  0  0  0
   -5.3785   -1.3169    7.1494 H   0  0  0  0  0  0  0  0  0  0  0  0
   -3.6823   -0.8525    7.0330 H   0  0  0  0  0  0  0  0  0  0  0  0
   -3.4475   -1.7897    4.7440 H   0  0  0  0  0  0  0  0  0  0  0  0
   -4.7680   -2.8767    5.2534 H   0  0  0  0  0  0  0  0  0  0  0  0
   -5.0826   -0.6097    3.4483 H   0  0  0  0  0  0  0  0  0  0  0  0
   -6.4153   -1.1936    4.4161 H   0  0  0  0  0  0  0  0  0  0  0  0
   -8.1512   -0.0937    4.5486 H   0  0  0  0  0  0  0  0  0  0  0  0
   -9.3621    0.7598    5.4414 H   0  0  0  0  0  0  0  0  0  0  0  0
   -6.9947   -2.4478    5.9346 H   0  0  0  0  0  0  0  0  0  0  0  0
   -9.8480   -2.8483    8.6857 H   0  0  0  0  0  0  0  0  0  0  0  0
  -11.0729    0.3178    6.9230 H   0  0  0  0  0  0  0  0  0  0  0  0
  -11.7269   -1.1897    7.5178 H   0  0  0  0  0  0  0  0  0  0  0  0
  -10.7549   -0.6623    9.8153 H   0  0  0  0  0  0  0  0  0  0  0  0
  -10.1871    0.8810    9.1343 H   0  0  0  0  0  0  0  0  0  0  0  0
  -13.0353   -0.0371    9.1485 H   0  0  0  0  0  0  0  0  0  0  0  0
  -10.0168    2.1896   10.6865 H   0  0  0  0  0  0  0  0  0  0  0  0
  -10.0577    3.6381    9.6850 H   0  0  0  0  0  0  0  0  0  0  0  0
   -9.1849    3.7686   12.1988 H   0  0  0  0  0  0  0  0  0  0  0  0
  -10.1899    5.0638   11.6015 H   0  0  0  0  0  0  0  0  0  0  0  0
  -11.2081    2.6917   13.0120 H   0  0  0  0  0  0  0  0  0  0  0  0
  -12.6468    5.1960   12.8551 H   0  0  0  0  0  0  0  0  0  0  0  0
  -13.2320    3.5441   12.9916 H   0  0  0  0  0  0  0  0  0  0  0  0
  -13.7904    4.0946   10.7337 H   0  0  0  0  0  0  0  0  0  0  0  0
  -12.3592    5.0707   10.5103 H   0  0  0  0  0  0  0  0  0  0  0  0
   -8.6866    2.7230    6.8160 H   0  0  0  0  0  0  0  0  0  0  0  0
  1  2  1  0
  2  3  1  0
  3  4  2  0
  4  5  1  0
  5  6  2  0
  6  7  1  0
  7  8  2  0
  8  9  1  0
  9 10  1  0
 10 11  1  0
 11 12  1  0
 12 13  1  0
  9 14  2  0
 14 15  1  0
 15 16  1  0
 16 17  1  0
 17 18  2  0
 18 19  1  0
 19 20  1  0
 20 21  1  0
 21 22  1  0
 22 23  1  0
 23 24  1  0
 24 25  2  0
 24 26  2  0
 24 27  1  0
 27 28  1  0
 28 29  1  0
 29 30  1  0
 30 31  1  0
 31 32  1  0
 14 33  1  0
  6  2  1  0
 33  7  1  0
 13 10  1  0
 20 16  2  0
 32 27  1  0
  1 34  1  0
  1 35  1  0
  1 36  1  0
  3 37  1  0
  4 38  1  0
 10 39  1  0
 11 40  1  0
 11 41  1  0
 12 42  1  0
 12 43  1  0
 13 44  1  0
 13 45  1  0
 15 46  1  0
 15 47  1  0
 17 48  1  0
 19 49  1  0
 21 50  1  0
 21 51  1  0
 22 52  1  0
 22 53  1  0
 23 54  1  0
 28 55  1  0
 28 56  1  0
 29 57  1  0
 29 58  1  0
 30 59  1  0
 31 60  1  0
 31 61  1  0
 32 62  1  0
 32 63  1  0
 33 64  1  0
M  END
>  <Energy>  (742) 
-74.733572335565995

>  <compound_id>  (742) 
2027

>  <target_id>  (742) 
1

>  <reference_id>  (742) 
143

>  <inspiration_ids>  (742) 
[33, 143]

>  <energy_score>  (742) 
-77.71233547529852

>  <distance_score>  (742) 
1.624284183544349

>  <path>  (742) 
/opt/xchem-fragalysis-2/maxwin/BulkDock/SCRATCH/505732/C2027-P143/C2027-P143.minimised.mol

>  <scratch_subdir>  (742) 
/opt/xchem-fragalysis-2/maxwin/BulkDock/SCRATCH/505732/C2027-P143

>  <fragmenstein_runtime>  (742) 
21.14283514022827

>  <fragmenstein_outcome>  (742) 
too moved

>  <fragmenstein_mode>  (742) 
expansion

>  <fragmenstein_error>  (742) 


$$$$
C1402-P33
     RDKit          3D

 38 39  0  0  0  0  0  0  0  0999 V2000
   -9.3707    3.5569    6.5792 C   0  0  0  0  0  0  0  0  0  0  0  0
   -9.9392    2.5349    7.4561 N   0  0  0  0  0  0  0  0  0  0  0  0
   -9.7950    1.1857    7.1187 C   0  0  0  0  0  0  0  0  0  0  0  0
   -8.8378    0.7042    6.2210 C   0  0  0  0  0  0  0  0  0  0  0  0
   -7.3497    1.1178    6.3508 C   0  0  0  0  0  0  0  0  0  0  0  0
   -6.8602    1.9116    5.2132 N   0  0  0  0  0  0  0  0  0  0  0  0
   -6.3156    0.0168    6.6634 C   0  0  0  0  0  0  0  0  0  0  0  0
   -6.4389   -1.3160    6.2494 C   0  0  0  0  0  0  0  0  0  0  0  0
   -5.4348   -2.2545    6.4992 C   0  0  0  0  0  0  0  0  0  0  0  0
   -4.2780   -1.8832    7.1701 C   0  0  0  0  0  0  0  0  0  0  0  0
   -4.1271   -0.5723    7.6006 C   0  0  0  0  0  0  0  0  0  0  0  0
   -5.1290    0.3687    7.3445 C   0  0  0  0  0  0  0  0  0  0  0  0
   -9.3181   -0.2709    5.3343 C   0  0  0  0  0  0  0  0  0  0  0  0
  -10.4771   -1.0038    5.6351 C   0  0  0  0  0  0  0  0  0  0  0  0
  -11.0803   -0.8415    6.8743 C   0  0  0  0  0  0  0  0  0  0  0  0
  -10.6825    0.2430    7.6457 C   0  0  0  0  0  0  0  0  0  0  0  0
  -11.0256    0.1949    9.3849 S   0  0  0  0  0  0  0  0  0  0  0  0
  -10.4300    1.6761   10.1319 C   0  0  0  0  0  0  0  0  0  0  0  0
  -12.4660    0.1844    9.5592 O   0  0  0  0  0  0  0  0  0  0  0  0
  -10.2065   -0.8683    9.9279 O   0  0  0  0  0  0  0  0  0  0  0  0
   -9.5577    3.3449    5.5215 H   0  0  0  0  0  0  0  0  0  0  0  0
   -9.8484    4.5161    6.8074 H   0  0  0  0  0  0  0  0  0  0  0  0
   -8.3033    3.6949    6.7634 H   0  0  0  0  0  0  0  0  0  0  0  0
  -10.9350    2.7367    7.5726 H   0  0  0  0  0  0  0  0  0  0  0  0
   -7.3053    1.7749    7.2295 H   0  0  0  0  0  0  0  0  0  0  0  0
   -6.8517    1.2930    4.4035 H   0  0  0  0  0  0  0  0  0  0  0  0
   -5.8874    2.1331    5.3999 H   0  0  0  0  0  0  0  0  0  0  0  0
   -7.3178   -1.6823    5.7350 H   0  0  0  0  0  0  0  0  0  0  0  0
   -5.5748   -3.2834    6.1809 H   0  0  0  0  0  0  0  0  0  0  0  0
   -3.5099   -2.6210    7.3827 H   0  0  0  0  0  0  0  0  0  0  0  0
   -3.2355   -0.2843    8.1477 H   0  0  0  0  0  0  0  0  0  0  0  0
   -4.9819    1.3909    7.6875 H   0  0  0  0  0  0  0  0  0  0  0  0
   -8.7342   -0.5583    4.4636 H   0  0  0  0  0  0  0  0  0  0  0  0
  -10.7816   -1.8125    4.9789 H   0  0  0  0  0  0  0  0  0  0  0  0
  -11.8041   -1.5665    7.2373 H   0  0  0  0  0  0  0  0  0  0  0  0
  -10.6198    1.5988   11.2051 H   0  0  0  0  0  0  0  0  0  0  0  0
  -10.9904    2.5353    9.7629 H   0  0  0  0  0  0  0  0  0  0  0  0
   -9.3559    1.7757    9.9692 H   0  0  0  0  0  0  0  0  0  0  0  0
  1  2  1  0
  2  3  1  0
  3  4  2  0
  4  5  1  0
  5  6  1  0
  5  7  1  0
  7  8  2  0
  8  9  1  0
  9 10  2  0
 10 11  1  0
 11 12  2  0
  4 13  1  0
 13 14  2  0
 14 15  1  0
 15 16  2  0
 16 17  1  0
 17 18  1  0
 17 19  2  0
 17 20  2  0
 16  3  1  0
 12  7  1  0
  1 21  1  0
  1 22  1  0
  1 23  1  0
  2 24  1  0
  5 25  1  0
  6 26  1  0
  6 27  1  0
  8 28  1  0
  9 29  1  0
 10 30  1  0
 11 31  1  0
 12 32  1  0
 13 33  1  0
 14 34  1  0
 15 35  1  0
 18 36  1  0
 18 37  1  0
 18 38  1  0
M  END
>  <Energy>  (743) 
113.75999592540828

>  <compound_id>  (743) 
1402

>  <target_id>  (743) 
1

>  <reference_id>  (743) 
33

>  <inspiration_ids>  (743) 
[33, 169]

>  <energy_score>  (743) 
-9.843462646012256

>  <distance_score>  (743) 
1.5728135796950973

>  <path>  (743) 
/opt/xchem-fragalysis-2/maxwin/BulkDock/SCRATCH/505732/C1402-P33/C1402-P33.minimised.mol

>  <scratch_subdir>  (743) 
/opt/xchem-fragalysis-2/maxwin/BulkDock/SCRATCH/505732/C1402-P33

>  <fragmenstein_runtime>  (743) 
5.577514410018921

>  <fragmenstein_outcome>  (743) 
too moved

>  <fragmenstein_mode>  (743) 
expansion

>  <fragmenstein_error>  (743) 


$$$$
C1402-P169
     RDKit          3D

 38 39  0  0  0  0  0  0  0  0999 V2000
   -9.5573    3.3608    6.2679 C   0  0  0  0  0  0  0  0  0  0  0  0
  -10.0773    2.3787    7.2171 N   0  0  0  0  0  0  0  0  0  0  0  0
   -9.8941    1.0151    6.9598 C   0  0  0  0  0  0  0  0  0  0  0  0
   -8.9204    0.5040    6.0962 C   0  0  0  0  0  0  0  0  0  0  0  0
   -7.4488    0.9977    6.1871 C   0  0  0  0  0  0  0  0  0  0  0  0
   -7.0017    1.7421    4.9997 N   0  0  0  0  0  0  0  0  0  0  0  0
   -6.3559   -0.0190    6.5644 C   0  0  0  0  0  0  0  0  0  0  0  0
   -6.3704   -1.3645    6.1816 C   0  0  0  0  0  0  0  0  0  0  0  0
   -5.3056   -2.2153    6.4854 C   0  0  0  0  0  0  0  0  0  0  0  0
   -4.1998   -1.7410    7.1801 C   0  0  0  0  0  0  0  0  0  0  0  0
   -4.1551   -0.4136    7.5793 C   0  0  0  0  0  0  0  0  0  0  0  0
   -5.2152    0.4393    7.2622 C   0  0  0  0  0  0  0  0  0  0  0  0
   -9.3690   -0.5545    5.2834 C   0  0  0  0  0  0  0  0  0  0  0  0
  -10.5184   -1.2964    5.6198 C   0  0  0  0  0  0  0  0  0  0  0  0
  -11.1320   -1.0596    6.8406 C   0  0  0  0  0  0  0  0  0  0  0  0
  -10.7553    0.0794    7.5434 C   0  0  0  0  0  0  0  0  0  0  0  0
  -11.0232    0.0784    9.2993 S   0  0  0  0  0  0  0  0  0  0  0  0
  -10.5924    1.6642    9.9383 C   0  0  0  0  0  0  0  0  0  0  0  0
  -12.4456   -0.0914    9.5338 O   0  0  0  0  0  0  0  0  0  0  0  0
  -10.0647   -0.8608    9.8467 O   0  0  0  0  0  0  0  0  0  0  0  0
   -9.7383    3.0686    5.2284 H   0  0  0  0  0  0  0  0  0  0  0  0
  -10.0758    4.3119    6.4321 H   0  0  0  0  0  0  0  0  0  0  0  0
   -8.4966    3.5584    6.4358 H   0  0  0  0  0  0  0  0  0  0  0  0
  -11.0760    2.5563    7.3420 H   0  0  0  0  0  0  0  0  0  0  0  0
   -7.4368    1.7126    7.0203 H   0  0  0  0  0  0  0  0  0  0  0  0
   -7.0219    1.0897    4.2167 H   0  0  0  0  0  0  0  0  0  0  0  0
   -6.0169    1.9636    5.1264 H   0  0  0  0  0  0  0  0  0  0  0  0
   -7.2027   -1.8039    5.6475 H   0  0  0  0  0  0  0  0  0  0  0  0
   -5.3546   -3.2590    6.1912 H   0  0  0  0  0  0  0  0  0  0  0  0
   -3.3874   -2.4133    7.4387 H   0  0  0  0  0  0  0  0  0  0  0  0
   -3.3039   -0.0452    8.1457 H   0  0  0  0  0  0  0  0  0  0  0  0
   -5.1532    1.4818    7.5656 H   0  0  0  0  0  0  0  0  0  0  0  0
   -8.7693   -0.8879    4.4399 H   0  0  0  0  0  0  0  0  0  0  0  0
  -10.8048   -2.1664    5.0305 H   0  0  0  0  0  0  0  0  0  0  0  0
  -11.8321   -1.7790    7.2580 H   0  0  0  0  0  0  0  0  0  0  0  0
   -9.5323    1.8600    9.7766 H   0  0  0  0  0  0  0  0  0  0  0  0
  -10.7989    1.6555   11.0094 H   0  0  0  0  0  0  0  0  0  0  0  0
  -11.2306    2.4296    9.4960 H   0  0  0  0  0  0  0  0  0  0  0  0
  1  2  1  0
  2  3  1  0
  3  4  2  0
  4  5  1  0
  5  6  1  0
  5  7  1  0
  7  8  2  0
  8  9  1  0
  9 10  2  0
 10 11  1  0
 11 12  2  0
  4 13  1  0
 13 14  2  0
 14 15  1  0
 15 16  2  0
 16 17  1  0
 17 18  1  0
 17 19  2  0
 17 20  2  0
 16  3  1  0
 12  7  1  0
  1 21  1  0
  1 22  1  0
  1 23  1  0
  2 24  1  0
  5 25  1  0
  6 26  1  0
  6 27  1  0
  8 28  1  0
  9 29  1  0
 10 30  1  0
 11 31  1  0
 12 32  1  0
 13 33  1  0
 14 34  1  0
 15 35  1  0
 18 36  1  0
 18 37  1  0
 18 38  1  0
M  END
>  <Energy>  (744) 
114.79770520874428

>  <compound_id>  (744) 
1402

>  <target_id>  (744) 
1

>  <reference_id>  (744) 
169

>  <inspiration_ids>  (744) 
[33, 169]

>  <energy_score>  (744) 
-8.805753362676569

>  <distance_score>  (744) 
1.6019040942997282

>  <path>  (744) 
/opt/xchem-fragalysis-2/maxwin/BulkDock/SCRATCH/505732/C1402-P169/C1402-P169.minimised.mol

>  <scratch_subdir>  (744) 
/opt/xchem-fragalysis-2/maxwin/BulkDock/SCRATCH/505732/C1402-P169

>  <fragmenstein_runtime>  (744) 
5.758864164352417

>  <fragmenstein_outcome>  (744) 
too moved

>  <fragmenstein_mode>  (744) 
expansion

>  <fragmenstein_error>  (744) 


$$$$
C2029-P33
     RDKit          3D

 36 36  0  0  0  0  0  0  0  0999 V2000
  -12.0488    1.7869    7.9156 C   0  0  0  0  0  0  0  0  0  0  0  0
  -10.5827    1.7985    8.1964 N   0  0  0  0  0  0  0  0  0  0  0  0
  -11.1102    2.0393    9.5839 C   0  0  0  0  0  0  0  0  0  0  0  0
   -9.5079    2.8206    7.8282 C   0  0  0  0  0  0  0  0  0  0  0  0
   -9.6039    3.8739    7.3068 O   0  0  0  0  0  0  0  0  0  0  0  0
   -8.1591    2.2155    8.2960 C   0  0  0  0  0  0  0  0  0  0  0  0
   -7.1108    2.1908    7.2410 N   0  0  0  0  0  0  0  0  0  0  0  0
   -6.4809    3.5036    7.0030 C   0  0  0  0  0  0  0  0  0  0  0  0
   -6.3181    1.0337    7.2248 C   0  0  0  0  0  0  0  0  0  0  0  0
   -4.9468    1.1164    7.5533 C   0  0  0  0  0  0  0  0  0  0  0  0
   -4.1262   -0.0106    7.6498 C   0  0  0  0  0  0  0  0  0  0  0  0
   -4.6424   -1.2595    7.3816 C   0  0  0  0  0  0  0  0  0  0  0  0
   -3.8481   -2.3339    7.4563 F   0  0  0  0  0  0  0  0  0  0  0  0
   -5.9633   -1.3987    7.0057 C   0  0  0  0  0  0  0  0  0  0  0  0
   -6.7981   -0.2629    6.9131 C   0  0  0  0  0  0  0  0  0  0  0  0
   -8.3836   -0.5990    6.1472 S   0  0  0  0  0  0  0  0  0  0  0  0
   -9.3424   -1.3626    7.4317 C   0  0  0  0  0  0  0  0  0  0  0  0
   -9.0223    0.6381    5.7516 O   0  0  0  0  0  0  0  0  0  0  0  0
   -8.1241   -1.6125    5.1353 O   0  0  0  0  0  0  0  0  0  0  0  0
  -12.5603    2.7551    8.0320 H   0  0  0  0  0  0  0  0  0  0  0  0
  -12.0842    1.6372    6.8260 H   0  0  0  0  0  0  0  0  0  0  0  0
  -12.5951    0.9163    8.3083 H   0  0  0  0  0  0  0  0  0  0  0  0
  -11.5578    3.0343    9.7381 H   0  0  0  0  0  0  0  0  0  0  0  0
  -10.2112    2.0826   10.2176 H   0  0  0  0  0  0  0  0  0  0  0  0
  -11.6791    1.2065   10.0259 H   0  0  0  0  0  0  0  0  0  0  0  0
   -7.8262    2.8452    9.1217 H   0  0  0  0  0  0  0  0  0  0  0  0
   -8.3197    1.2207    8.7232 H   0  0  0  0  0  0  0  0  0  0  0  0
   -7.2319    4.2496    6.7294 H   0  0  0  0  0  0  0  0  0  0  0  0
   -5.7776    3.4509    6.1640 H   0  0  0  0  0  0  0  0  0  0  0  0
   -5.9546    3.8653    7.8920 H   0  0  0  0  0  0  0  0  0  0  0  0
   -4.4817    2.0759    7.7648 H   0  0  0  0  0  0  0  0  0  0  0  0
   -3.0861    0.0831    7.9305 H   0  0  0  0  0  0  0  0  0  0  0  0
   -6.3229   -2.3902    6.7389 H   0  0  0  0  0  0  0  0  0  0  0  0
   -9.4094   -0.6992    8.2919 H   0  0  0  0  0  0  0  0  0  0  0  0
   -8.8680   -2.3038    7.7174 H   0  0  0  0  0  0  0  0  0  0  0  0
  -10.3412   -1.5602    7.0361 H   0  0  0  0  0  0  0  0  0  0  0  0
  1  2  1  0
  2  3  1  0
  2  4  1  0
  4  5  2  0
  4  6  1  0
  6  7  1  0
  7  8  1  0
  7  9  1  0
  9 10  2  0
 10 11  1  0
 11 12  2  0
 12 13  1  0
 12 14  1  0
 14 15  2  0
 15 16  1  0
 16 17  1  0
 16 18  2  0
 16 19  2  0
 15  9  1  0
  1 20  1  0
  1 21  1  0
  1 22  1  0
  3 23  1  0
  3 24  1  0
  3 25  1  0
  6 26  1  0
  6 27  1  0
  8 28  1  0
  8 29  1  0
  8 30  1  0
 10 31  1  0
 11 32  1  0
 14 33  1  0
 17 34  1  0
 17 35  1  0
 17 36  1  0
M  END
>  <Energy>  (745) 
171.89260911838986

>  <compound_id>  (745) 
2029

>  <target_id>  (745) 
1

>  <reference_id>  (745) 
33

>  <inspiration_ids>  (745) 
[33, 181]

>  <energy_score>  (745) 
48.24603464146958

>  <distance_score>  (745) 
1.4102418505164318

>  <path>  (745) 
/opt/xchem-fragalysis-2/maxwin/BulkDock/SCRATCH/505732/C2029-P33/C2029-P33.minimised.mol

>  <scratch_subdir>  (745) 
/opt/xchem-fragalysis-2/maxwin/BulkDock/SCRATCH/505732/C2029-P33

>  <fragmenstein_runtime>  (745) 
15.288448333740234

>  <fragmenstein_outcome>  (745) 
too moved

>  <fragmenstein_mode>  (745) 
expansion

>  <fragmenstein_error>  (745) 


$$$$
C2029-P181
     RDKit          3D

 36 36  0  0  0  0  0  0  0  0999 V2000
  -12.0451    2.0179    7.2030 C   0  0  0  0  0  0  0  0  0  0  0  0
  -10.6056    2.0715    7.5948 N   0  0  0  0  0  0  0  0  0  0  0  0
  -11.2311    2.6216    8.8461 C   0  0  0  0  0  0  0  0  0  0  0  0
   -9.4726    2.9722    7.1002 C   0  0  0  0  0  0  0  0  0  0  0  0
   -9.4944    3.8847    6.3533 O   0  0  0  0  0  0  0  0  0  0  0  0
   -8.1862    2.4724    7.8085 C   0  0  0  0  0  0  0  0  0  0  0  0
   -7.0103    2.3335    6.9101 N   0  0  0  0  0  0  0  0  0  0  0  0
   -6.3342    3.6247    6.6706 C   0  0  0  0  0  0  0  0  0  0  0  0
   -6.2444    1.1614    7.0097 C   0  0  0  0  0  0  0  0  0  0  0  0
   -4.8559    1.2655    7.2791 C   0  0  0  0  0  0  0  0  0  0  0  0
   -4.0326    0.1576    7.5034 C   0  0  0  0  0  0  0  0  0  0  0  0
   -4.5558   -1.1100    7.4019 C   0  0  0  0  0  0  0  0  0  0  0  0
   -3.7589   -2.1703    7.5756 F   0  0  0  0  0  0  0  0  0  0  0  0
   -5.8871   -1.2845    7.0833 C   0  0  0  0  0  0  0  0  0  0  0  0
   -6.7286   -0.1648    6.8722 C   0  0  0  0  0  0  0  0  0  0  0  0
   -8.3142   -0.6091    6.1650 S   0  0  0  0  0  0  0  0  0  0  0  0
   -9.2992   -1.1260    7.5466 C   0  0  0  0  0  0  0  0  0  0  0  0
   -8.9220    0.5493    5.5486 O   0  0  0  0  0  0  0  0  0  0  0  0
   -8.0711   -1.7949    5.3588 O   0  0  0  0  0  0  0  0  0  0  0  0
  -12.0005    1.6326    6.1732 H   0  0  0  0  0  0  0  0  0  0  0  0
  -12.5342    2.9945    7.0626 H   0  0  0  0  0  0  0  0  0  0  0  0
  -12.6467    1.2623    7.7299 H   0  0  0  0  0  0  0  0  0  0  0  0
  -10.3837    2.7887    9.5282 H   0  0  0  0  0  0  0  0  0  0  0  0
  -11.8616    1.9174    9.4109 H   0  0  0  0  0  0  0  0  0  0  0  0
  -11.6543    3.6334    8.7400 H   0  0  0  0  0  0  0  0  0  0  0  0
   -8.3769    1.5530    8.3653 H   0  0  0  0  0  0  0  0  0  0  0  0
   -7.9722    3.2443    8.5533 H   0  0  0  0  0  0  0  0  0  0  0  0
   -7.0530    4.3944    6.3747 H   0  0  0  0  0  0  0  0  0  0  0  0
   -5.6150    3.5422    5.8479 H   0  0  0  0  0  0  0  0  0  0  0  0
   -5.8219    3.9780    7.5725 H   0  0  0  0  0  0  0  0  0  0  0  0
   -4.3789    2.2382    7.3879 H   0  0  0  0  0  0  0  0  0  0  0  0
   -2.9902    0.2888    7.7647 H   0  0  0  0  0  0  0  0  0  0  0  0
   -6.2501   -2.3010    6.9449 H   0  0  0  0  0  0  0  0  0  0  0  0
   -8.8473   -2.0181    7.9849 H   0  0  0  0  0  0  0  0  0  0  0  0
  -10.2980   -1.3678    7.1759 H   0  0  0  0  0  0  0  0  0  0  0  0
   -9.3644   -0.3352    8.2895 H   0  0  0  0  0  0  0  0  0  0  0  0
  1  2  1  0
  2  3  1  0
  2  4  1  0
  4  5  2  0
  4  6  1  0
  6  7  1  0
  7  8  1  0
  7  9  1  0
  9 10  2  0
 10 11  1  0
 11 12  2  0
 12 13  1  0
 12 14  1  0
 14 15  2  0
 15 16  1  0
 16 17  1  0
 16 18  2  0
 16 19  2  0
 15  9  1  0
  1 20  1  0
  1 21  1  0
  1 22  1  0
  3 23  1  0
  3 24  1  0
  3 25  1  0
  6 26  1  0
  6 27  1  0
  8 28  1  0
  8 29  1  0
  8 30  1  0
 10 31  1  0
 11 32  1  0
 14 33  1  0
 17 34  1  0
 17 35  1  0
 17 36  1  0
M  END
>  <Energy>  (746) 
174.41097484448923

>  <compound_id>  (746) 
2029

>  <target_id>  (746) 
1

>  <reference_id>  (746) 
181

>  <inspiration_ids>  (746) 
[33, 181]

>  <energy_score>  (746) 
50.76440036756992

>  <distance_score>  (746) 
1.683774908485851

>  <path>  (746) 
/opt/xchem-fragalysis-2/maxwin/BulkDock/SCRATCH/505732/C2029-P181/C2029-P181.minimised.mol

>  <scratch_subdir>  (746) 
/opt/xchem-fragalysis-2/maxwin/BulkDock/SCRATCH/505732/C2029-P181

>  <fragmenstein_runtime>  (746) 
12.76373815536499

>  <fragmenstein_outcome>  (746) 
too moved

>  <fragmenstein_mode>  (746) 
expansion

>  <fragmenstein_error>  (746) 


$$$$
C2031-P35
     RDKit          3D

 41 41  0  0  0  0  0  0  0  0999 V2000
  -14.1534  -26.3032   25.5311 C   0  0  0  0  0  0  0  0  0  0  0  0
  -12.6479  -26.2203   25.7812 C   0  0  0  0  0  0  0  0  0  0  0  0
  -12.1898  -24.8065   26.1442 C   0  0  0  0  0  0  0  0  0  0  0  0
  -12.7829  -24.3141   27.4521 C   0  0  0  0  0  0  0  0  0  0  0  0
  -12.2360  -24.9531   28.6882 C   0  0  0  0  0  0  0  0  0  0  0  0
  -10.8017  -24.5606   28.9810 C   0  0  0  0  0  0  0  0  0  0  0  0
  -10.5180  -25.1146   30.3843 C   0  0  0  0  0  0  0  0  0  0  0  0
  -10.5186  -26.6672   30.2809 C   0  0  0  0  0  0  0  0  0  0  0  0
   -9.7904  -27.3854   31.3926 N   0  0  0  0  0  0  0  0  0  0  0  0
  -10.0409  -28.5482   30.5110 C   0  0  0  0  0  0  0  0  0  0  0  0
  -10.3459  -27.0396   32.6448 C   0  0  0  0  0  0  0  0  0  0  0  0
   -9.5616  -25.8885   33.2304 C   0  0  0  0  0  0  0  0  0  0  0  0
  -11.2309  -27.5542   33.2751 O   0  0  0  0  0  0  0  0  0  0  0  0
  -11.6667  -24.5483   31.2442 C   0  0  0  0  0  0  0  0  0  0  0  0
  -11.2790  -23.2713   31.7825 O   0  0  0  0  0  0  0  0  0  0  0  0
  -13.1149  -24.5080   30.1732 S   0  0  0  0  0  0  0  0  0  0  0  0
  -14.0312  -25.5842   30.4848 O   0  0  0  0  0  0  0  0  0  0  0  0
  -13.5319  -23.1245   30.0892 O   0  0  0  0  0  0  0  0  0  0  0  0
  -14.4305  -27.2590   25.0828 H   0  0  0  0  0  0  0  0  0  0  0  0
  -14.7208  -26.2230   26.4629 H   0  0  0  0  0  0  0  0  0  0  0  0
  -14.4877  -25.5106   24.8545 H   0  0  0  0  0  0  0  0  0  0  0  0
  -12.3637  -26.9378   26.5578 H   0  0  0  0  0  0  0  0  0  0  0  0
  -12.1099  -26.5228   24.8785 H   0  0  0  0  0  0  0  0  0  0  0  0
  -12.4965  -24.1157   25.3502 H   0  0  0  0  0  0  0  0  0  0  0  0
  -11.1000  -24.7618   26.1821 H   0  0  0  0  0  0  0  0  0  0  0  0
  -12.6577  -23.2292   27.5111 H   0  0  0  0  0  0  0  0  0  0  0  0
  -13.8382  -24.5684   27.4439 H   0  0  0  0  0  0  0  0  0  0  0  0
  -12.3381  -26.0374   28.5914 H   0  0  0  0  0  0  0  0  0  0  0  0
  -10.6968  -23.4718   28.9490 H   0  0  0  0  0  0  0  0  0  0  0  0
  -10.1275  -24.9805   28.2385 H   0  0  0  0  0  0  0  0  0  0  0  0
   -9.5383  -24.7695   30.7157 H   0  0  0  0  0  0  0  0  0  0  0  0
  -10.0468  -26.8365   29.2982 H   0  0  0  0  0  0  0  0  0  0  0  0
  -11.5773  -26.9731   30.2866 H   0  0  0  0  0  0  0  0  0  0  0  0
  -11.0917  -28.8640   30.4238 H   0  0  0  0  0  0  0  0  0  0  0  0
   -9.4658  -28.5592   29.5790 H   0  0  0  0  0  0  0  0  0  0  0  0
   -9.5978  -29.3618   31.0896 H   0  0  0  0  0  0  0  0  0  0  0  0
   -8.7754  -25.5507   32.5534 H   0  0  0  0  0  0  0  0  0  0  0  0
   -9.0698  -26.2459   34.1338 H   0  0  0  0  0  0  0  0  0  0  0  0
  -10.2075  -25.0499   33.4829 H   0  0  0  0  0  0  0  0  0  0  0  0
  -11.9117  -25.1879   32.0698 H   0  0  0  0  0  0  0  0  0  0  0  0
  -12.1131  -22.8272   32.0354 H   0  0  0  0  0  0  0  0  0  0  0  0
  1  2  1  0
  2  3  1  0
  3  4  1  0
  4  5  1  0
  5  6  1  0
  6  7  1  0
  7  8  1  0
  8  9  1  0
  9 10  1  0
  9 11  1  0
 11 12  1  0
 11 13  2  0
  7 14  1  0
 14 15  1  0
 14 16  1  0
 16 17  2  0
 16 18  2  0
 16  5  1  0
  1 19  1  0
  1 20  1  0
  1 21  1  0
  2 22  1  0
  2 23  1  0
  3 24  1  0
  3 25  1  0
  4 26  1  0
  4 27  1  0
  5 28  1  0
  6 29  1  0
  6 30  1  0
  7 31  1  0
  8 32  1  0
  8 33  1  0
 10 34  1  0
 10 35  1  0
 10 36  1  0
 12 37  1  0
 12 38  1  0
 12 39  1  0
 14 40  1  0
 15 41  1  0
M  END
>  <Energy>  (747) 
127.10881876945871

>  <compound_id>  (747) 
2031

>  <target_id>  (747) 
1

>  <reference_id>  (747) 
35

>  <inspiration_ids>  (747) 
[35, 16]

>  <energy_score>  (747) 
40.624215552308954

>  <distance_score>  (747) 
2.655692853611979

>  <path>  (747) 
/opt/xchem-fragalysis-2/maxwin/BulkDock/SCRATCH/505732/C2031-P35/C2031-P35.minimised.mol

>  <scratch_subdir>  (747) 
/opt/xchem-fragalysis-2/maxwin/BulkDock/SCRATCH/505732/C2031-P35

>  <fragmenstein_runtime>  (747) 
16.65836477279663

>  <fragmenstein_outcome>  (747) 
too moved

>  <fragmenstein_mode>  (747) 
expansion

>  <fragmenstein_error>  (747) 


$$$$
C2031-P16
     RDKit          3D

 41 41  0  0  0  0  0  0  0  0999 V2000
  -16.1195  -26.5239   26.7962 C   0  0  0  0  0  0  0  0  0  0  0  0
  -15.0919  -27.5829   27.1516 C   0  0  0  0  0  0  0  0  0  0  0  0
  -13.7295  -27.3687   26.4953 C   0  0  0  0  0  0  0  0  0  0  0  0
  -13.0502  -26.0106   26.6320 C   0  0  0  0  0  0  0  0  0  0  0  0
  -12.6738  -25.6422   28.0522 C   0  0  0  0  0  0  0  0  0  0  0  0
  -11.3549  -26.1897   28.5979 C   0  0  0  0  0  0  0  0  0  0  0  0
  -10.7878  -25.2009   29.6455 C   0  0  0  0  0  0  0  0  0  0  0  0
  -11.3964  -25.3372   31.0569 C   0  0  0  0  0  0  0  0  0  0  0  0
  -11.0351  -24.1930   32.0223 N   0  0  0  0  0  0  0  0  0  0  0  0
   -9.9446  -25.1294   32.3843 C   0  0  0  0  0  0  0  0  0  0  0  0
  -12.1894  -23.7831   32.7534 C   0  0  0  0  0  0  0  0  0  0  0  0
  -12.8797  -22.6216   32.0800 C   0  0  0  0  0  0  0  0  0  0  0  0
  -12.6172  -24.1589   33.8073 O   0  0  0  0  0  0  0  0  0  0  0  0
  -11.0612  -23.8325   29.0688 C   0  0  0  0  0  0  0  0  0  0  0  0
  -10.0091  -23.5622   28.1500 O   0  0  0  0  0  0  0  0  0  0  0  0
  -12.6232  -23.8957   28.2758 S   0  0  0  0  0  0  0  0  0  0  0  0
  -13.6489  -23.5144   29.2148 O   0  0  0  0  0  0  0  0  0  0  0  0
  -12.4260  -23.2346   27.0031 O   0  0  0  0  0  0  0  0  0  0  0  0
  -15.8190  -25.5416   27.1662 H   0  0  0  0  0  0  0  0  0  0  0  0
  -16.2567  -26.4573   25.7123 H   0  0  0  0  0  0  0  0  0  0  0  0
  -17.0865  -26.7694   27.2464 H   0  0  0  0  0  0  0  0  0  0  0  0
  -14.9830  -27.6581   28.2335 H   0  0  0  0  0  0  0  0  0  0  0  0
  -15.4758  -28.5587   26.8280 H   0  0  0  0  0  0  0  0  0  0  0  0
  -13.8898  -27.5151   25.4253 H   0  0  0  0  0  0  0  0  0  0  0  0
  -13.0469  -28.1411   26.8638 H   0  0  0  0  0  0  0  0  0  0  0  0
  -12.1547  -25.9952   25.9974 H   0  0  0  0  0  0  0  0  0  0  0  0
  -13.7247  -25.2612   26.2008 H   0  0  0  0  0  0  0  0  0  0  0  0
  -13.4504  -25.9873   28.6995 H   0  0  0  0  0  0  0  0  0  0  0  0
  -11.5111  -27.1805   29.0333 H   0  0  0  0  0  0  0  0  0  0  0  0
  -10.6308  -26.2939   27.7809 H   0  0  0  0  0  0  0  0  0  0  0  0
   -9.7087  -25.3770   29.6926 H   0  0  0  0  0  0  0  0  0  0  0  0
  -11.2923  -26.3738   31.4136 H   0  0  0  0  0  0  0  0  0  0  0  0
  -12.4793  -25.2408   30.9246 H   0  0  0  0  0  0  0  0  0  0  0  0
  -10.3004  -25.9489   33.0228 H   0  0  0  0  0  0  0  0  0  0  0  0
   -9.3622  -24.5325   33.0896 H   0  0  0  0  0  0  0  0  0  0  0  0
   -9.2096  -25.3992   31.6215 H   0  0  0  0  0  0  0  0  0  0  0  0
  -13.0700  -21.8496   32.8330 H   0  0  0  0  0  0  0  0  0  0  0  0
  -12.2689  -22.1632   31.3033 H   0  0  0  0  0  0  0  0  0  0  0  0
  -13.8344  -22.9532   31.6700 H   0  0  0  0  0  0  0  0  0  0  0  0
  -11.1242  -23.0126   29.7768 H   0  0  0  0  0  0  0  0  0  0  0  0
  -10.4758  -23.2267   27.3529 H   0  0  0  0  0  0  0  0  0  0  0  0
  1  2  1  0
  2  3  1  0
  3  4  1  0
  4  5  1  0
  5  6  1  0
  6  7  1  0
  7  8  1  0
  8  9  1  0
  9 10  1  0
  9 11  1  0
 11 12  1  0
 11 13  2  0
  7 14  1  0
 14 15  1  0
 14 16  1  0
 16 17  2  0
 16 18  2  0
 16  5  1  0
  1 19  1  0
  1 20  1  0
  1 21  1  0
  2 22  1  0
  2 23  1  0
  3 24  1  0
  3 25  1  0
  4 26  1  0
  4 27  1  0
  5 28  1  0
  6 29  1  0
  6 30  1  0
  7 31  1  0
  8 32  1  0
  8 33  1  0
 10 34  1  0
 10 35  1  0
 10 36  1  0
 12 37  1  0
 12 38  1  0
 12 39  1  0
 14 40  1  0
 15 41  1  0
M  END
>  <Energy>  (748) 
125.77939055586597

>  <compound_id>  (748) 
2031

>  <target_id>  (748) 
1

>  <reference_id>  (748) 
16

>  <inspiration_ids>  (748) 
[35, 16]

>  <energy_score>  (748) 
39.29478733871396

>  <distance_score>  (748) 
4.299262920552898

>  <path>  (748) 
/opt/xchem-fragalysis-2/maxwin/BulkDock/SCRATCH/505732/C2031-P16/C2031-P16.minimised.mol

>  <scratch_subdir>  (748) 
/opt/xchem-fragalysis-2/maxwin/BulkDock/SCRATCH/505732/C2031-P16

>  <fragmenstein_runtime>  (748) 
13.311082124710083

>  <fragmenstein_outcome>  (748) 
too moved

>  <fragmenstein_mode>  (748) 
expansion

>  <fragmenstein_error>  (748) 


$$$$
C31-P35
     RDKit          3D

 23 23  0  0  0  0  0  0  0  0999 V2000
   -9.9648  -28.1514   29.2876 C   0  0  0  0  0  0  0  0  0  0  0  0
   -9.8774  -26.8273   29.8261 N   0  0  0  0  0  0  0  0  0  0  0  0
  -10.6738  -25.8432   29.2326 C   0  0  0  0  0  0  0  0  0  0  0  0
  -10.8658  -25.7671   27.8495 C   0  0  0  0  0  0  0  0  0  0  0  0
  -11.4413  -24.6418   27.2549 C   0  0  0  0  0  0  0  0  0  0  0  0
  -11.8421  -23.5716   28.0422 C   0  0  0  0  0  0  0  0  0  0  0  0
  -11.7424  -23.6547   29.4234 C   0  0  0  0  0  0  0  0  0  0  0  0
  -11.1545  -24.7847   30.0024 C   0  0  0  0  0  0  0  0  0  0  0  0
  -11.2853  -25.0059   31.7485 S   0  0  0  0  0  0  0  0  0  0  0  0
   -9.8507  -24.3310   32.4795 C   0  0  0  0  0  0  0  0  0  0  0  0
  -11.2274  -26.4448   32.0037 O   0  0  0  0  0  0  0  0  0  0  0  0
  -12.4063  -24.1781   32.1437 O   0  0  0  0  0  0  0  0  0  0  0  0
  -11.0031  -28.4920   29.2127 H   0  0  0  0  0  0  0  0  0  0  0  0
   -9.4356  -28.8122   29.9735 H   0  0  0  0  0  0  0  0  0  0  0  0
   -9.4851  -28.1833   28.3093 H   0  0  0  0  0  0  0  0  0  0  0  0
  -10.0599  -26.9108   30.8330 H   0  0  0  0  0  0  0  0  0  0  0  0
  -10.5236  -26.5709   27.2071 H   0  0  0  0  0  0  0  0  0  0  0  0
  -11.5488  -24.5845   26.1752 H   0  0  0  0  0  0  0  0  0  0  0  0
  -12.2519  -22.6833   27.5768 H   0  0  0  0  0  0  0  0  0  0  0  0
  -12.1299  -22.8459   30.0402 H   0  0  0  0  0  0  0  0  0  0  0  0
   -8.9699  -24.7147   31.9663 H   0  0  0  0  0  0  0  0  0  0  0  0
   -9.8327  -24.6469   33.5248 H   0  0  0  0  0  0  0  0  0  0  0  0
   -9.9185  -23.2455   32.4434 H   0  0  0  0  0  0  0  0  0  0  0  0
  1  2  1  0
  2  3  1  0
  3  4  2  0
  4  5  1  0
  5  6  2  0
  6  7  1  0
  7  8  2  0
  8  9  1  0
  9 10  1  0
  9 11  2  0
  9 12  2  0
  8  3  1  0
  1 13  1  0
  1 14  1  0
  1 15  1  0
  2 16  1  0
  4 17  1  0
  5 18  1  0
  6 19  1  0
  7 20  1  0
 10 21  1  0
 10 22  1  0
 10 23  1  0
M  END
>  <Energy>  (749) 
57.294378260362414

>  <compound_id>  (749) 
31

>  <target_id>  (749) 
1

>  <reference_id>  (749) 
35

>  <inspiration_ids>  (749) 
[35, 62]

>  <energy_score>  (749) 
-18.27091840404455

>  <distance_score>  (749) 
1.0542142859328472

>  <path>  (749) 
/opt/xchem-fragalysis-2/maxwin/BulkDock/SCRATCH/505732/C31-P35/C31-P35.minimised.mol

>  <scratch_subdir>  (749) 
/opt/xchem-fragalysis-2/maxwin/BulkDock/SCRATCH/505732/C31-P35

>  <fragmenstein_runtime>  (749) 
1.5920755863189697

>  <fragmenstein_outcome>  (749) 
too moved

>  <fragmenstein_mode>  (749) 
expansion

>  <fragmenstein_error>  (749) 


$$$$
C31-P62
     RDKit          3D

 23 23  0  0  0  0  0  0  0  0999 V2000
   -9.7936  -27.6422   31.2484 C   0  0  0  0  0  0  0  0  0  0  0  0
  -10.1999  -27.1249   29.9637 N   0  0  0  0  0  0  0  0  0  0  0  0
  -10.9121  -26.0223   29.5701 C   0  0  0  0  0  0  0  0  0  0  0  0
  -10.9357  -25.8151   28.1691 C   0  0  0  0  0  0  0  0  0  0  0  0
  -11.4778  -24.6794   27.5794 C   0  0  0  0  0  0  0  0  0  0  0  0
  -12.0784  -23.7338   28.3773 C   0  0  0  0  0  0  0  0  0  0  0  0
  -12.1889  -23.9537   29.7415 C   0  0  0  0  0  0  0  0  0  0  0  0
  -11.6049  -25.0872   30.3408 C   0  0  0  0  0  0  0  0  0  0  0  0
  -11.5640  -25.0250   32.1062 S   0  0  0  0  0  0  0  0  0  0  0  0
   -9.9913  -24.2829   32.3222 C   0  0  0  0  0  0  0  0  0  0  0  0
  -11.4493  -26.3231   32.7207 O   0  0  0  0  0  0  0  0  0  0  0  0
  -12.5566  -24.0864   32.5813 O   0  0  0  0  0  0  0  0  0  0  0  0
  -10.5778  -28.2425   31.7022 H   0  0  0  0  0  0  0  0  0  0  0  0
   -9.4061  -26.8654   31.8994 H   0  0  0  0  0  0  0  0  0  0  0  0
   -8.9418  -28.3140   31.1411 H   0  0  0  0  0  0  0  0  0  0  0  0
   -9.6030  -27.4820   29.2265 H   0  0  0  0  0  0  0  0  0  0  0  0
  -10.4672  -26.5321   27.4980 H   0  0  0  0  0  0  0  0  0  0  0  0
  -11.4196  -24.5323   26.5046 H   0  0  0  0  0  0  0  0  0  0  0  0
  -12.4630  -22.8272   27.9341 H   0  0  0  0  0  0  0  0  0  0  0  0
  -12.6965  -23.2017   30.3454 H   0  0  0  0  0  0  0  0  0  0  0  0
   -9.2968  -24.6317   31.5602 H   0  0  0  0  0  0  0  0  0  0  0  0
   -9.6075  -24.6066   33.2794 H   0  0  0  0  0  0  0  0  0  0  0  0
  -10.1229  -23.2048   32.2879 H   0  0  0  0  0  0  0  0  0  0  0  0
  1  2  1  0
  2  3  1  0
  3  4  2  0
  4  5  1  0
  5  6  2  0
  6  7  1  0
  7  8  2  0
  8  9  1  0
  9 10  1  0
  9 11  2  0
  9 12  2  0
  8  3  1  0
  1 13  1  0
  1 14  1  0
  1 15  1  0
  2 16  1  0
  4 17  1  0
  5 18  1  0
  6 19  1  0
  7 20  1  0
 10 21  1  0
 10 22  1  0
 10 23  1  0
M  END
>  <Energy>  (750) 
71.885460514038201

>  <compound_id>  (750) 
31

>  <target_id>  (750) 
1

>  <reference_id>  (750) 
62

>  <inspiration_ids>  (750) 
[35, 62]

>  <energy_score>  (750) 
-3.6798361503686863

>  <distance_score>  (750) 
1.2199743011532431

>  <path>  (750) 
/opt/xchem-fragalysis-2/maxwin/BulkDock/SCRATCH/505732/C31-P62/C31-P62.minimised.mol

>  <scratch_subdir>  (750) 
/opt/xchem-fragalysis-2/maxwin/BulkDock/SCRATCH/505732/C31-P62

>  <fragmenstein_runtime>  (750) 
3.3866212368011475

>  <fragmenstein_outcome>  (750) 
too moved

>  <fragmenstein_mode>  (750) 
expansion

>  <fragmenstein_error>  (750) 


$$$$
C31-P35
     RDKit          2D

  0  0  0  0  0  0  0  0  0  0999 V2000
M  END
>  <compound_id>  (751) 
31

>  <target_id>  (751) 
1

>  <reference_id>  (751) 
35

>  <inspiration_ids>  (751) 
[35, 94]

>  <energy_score>  (751) 
nan

>  <distance_score>  (751) 
nan

>  <path>  (751) 
/opt/xchem-fragalysis-2/maxwin/BulkDock/SCRATCH/505732/C31-P35/C31-P35.minimised.mol

>  <scratch_subdir>  (751) 
/opt/xchem-fragalysis-2/maxwin/BulkDock/SCRATCH/505732/C31-P35

>  <fragmenstein_runtime>  (751) 
0.7306628227233887

>  <fragmenstein_outcome>  (751) 
crashed

>  <fragmenstein_mode>  (751) 
expansion

>  <fragmenstein_error>  (751) 
PoisonError: None has poison atoms [2, 1, 0, 6, 2, 8]

$$$$
C31-P35
     RDKit          3D

 23 23  0  0  0  0  0  0  0  0999 V2000
  -11.1100  -23.7955   28.7007 C   0  0  0  0  0  0  0  0  0  0  0  0
  -11.6536  -24.4986   29.8557 N   0  0  0  0  0  0  0  0  0  0  0  0
  -11.1407  -24.1346   31.1112 C   0  0  0  0  0  0  0  0  0  0  0  0
  -11.3676  -22.8413   31.6203 C   0  0  0  0  0  0  0  0  0  0  0  0
  -10.8726  -22.4442   32.8676 C   0  0  0  0  0  0  0  0  0  0  0  0
  -10.1528  -23.3411   33.6412 C   0  0  0  0  0  0  0  0  0  0  0  0
   -9.9595  -24.6379   33.1757 C   0  0  0  0  0  0  0  0  0  0  0  0
  -10.4627  -25.0376   31.9314 C   0  0  0  0  0  0  0  0  0  0  0  0
  -10.2753  -26.7487   31.5542 S   0  0  0  0  0  0  0  0  0  0  0  0
  -10.1720  -26.9718   29.8149 C   0  0  0  0  0  0  0  0  0  0  0  0
  -11.4605  -27.4407   32.0257 O   0  0  0  0  0  0  0  0  0  0  0  0
   -8.9825  -27.1393   32.0754 O   0  0  0  0  0  0  0  0  0  0  0  0
  -10.0387  -23.9766   28.6008 H   0  0  0  0  0  0  0  0  0  0  0  0
  -11.2999  -22.7183   28.7480 H   0  0  0  0  0  0  0  0  0  0  0  0
  -11.5916  -24.1768   27.7947 H   0  0  0  0  0  0  0  0  0  0  0  0
  -12.6705  -24.3750   29.8873 H   0  0  0  0  0  0  0  0  0  0  0  0
  -11.9381  -22.1210   31.0402 H   0  0  0  0  0  0  0  0  0  0  0  0
  -11.0579  -21.4369   33.2332 H   0  0  0  0  0  0  0  0  0  0  0  0
   -9.7813  -23.0501   34.6199 H   0  0  0  0  0  0  0  0  0  0  0  0
   -9.4609  -25.3662   33.8147 H   0  0  0  0  0  0  0  0  0  0  0  0
   -9.8168  -27.9893   29.6333 H   0  0  0  0  0  0  0  0  0  0  0  0
  -11.1567  -26.8740   29.3585 H   0  0  0  0  0  0  0  0  0  0  0  0
   -9.4544  -26.2657   29.3962 H   0  0  0  0  0  0  0  0  0  0  0  0
  1  2  1  0
  2  3  1  0
  3  4  2  0
  4  5  1  0
  5  6  2  0
  6  7  1  0
  7  8  2  0
  8  9  1  0
  9 10  1  0
  9 11  2  0
  9 12  2  0
  8  3  1  0
  1 13  1  0
  1 14  1  0
  1 15  1  0
  2 16  1  0
  4 17  1  0
  5 18  1  0
  6 19  1  0
  7 20  1  0
 10 21  1  0
 10 22  1  0
 10 23  1  0
M  END
>  <Energy>  (752) 
56.096596077497139

>  <compound_id>  (752) 
31

>  <target_id>  (752) 
1

>  <reference_id>  (752) 
35

>  <inspiration_ids>  (752) 
[35, 96]

>  <energy_score>  (752) 
-20.549281156638585

>  <distance_score>  (752) 
1.4672746290043417

>  <path>  (752) 
/opt/xchem-fragalysis-2/maxwin/BulkDock/SCRATCH/505732/C31-P35/C31-P35.minimised.mol

>  <scratch_subdir>  (752) 
/opt/xchem-fragalysis-2/maxwin/BulkDock/SCRATCH/505732/C31-P35

>  <fragmenstein_runtime>  (752) 
4.299376010894775

>  <fragmenstein_outcome>  (752) 
too moved

>  <fragmenstein_mode>  (752) 
expansion

>  <fragmenstein_error>  (752) 


$$$$
C31-P96
     RDKit          3D

 23 23  0  0  0  0  0  0  0  0999 V2000
  -10.2479  -23.6234   28.7307 C   0  0  0  0  0  0  0  0  0  0  0  0
  -11.1597  -23.6087   29.8783 N   0  0  0  0  0  0  0  0  0  0  0  0
  -10.4699  -23.7702   31.0980 C   0  0  0  0  0  0  0  0  0  0  0  0
   -9.9291  -22.6722   31.7500 C   0  0  0  0  0  0  0  0  0  0  0  0
   -8.9615  -22.8405   32.7404 C   0  0  0  0  0  0  0  0  0  0  0  0
   -8.5448  -24.1048   33.1299 C   0  0  0  0  0  0  0  0  0  0  0  0
   -9.1745  -25.2117   32.5890 C   0  0  0  0  0  0  0  0  0  0  0  0
  -10.1638  -25.0281   31.6109 C   0  0  0  0  0  0  0  0  0  0  0  0
  -11.3693  -26.3041   31.3691 S   0  0  0  0  0  0  0  0  0  0  0  0
  -11.3421  -26.7319   29.6626 C   0  0  0  0  0  0  0  0  0  0  0  0
  -12.6703  -25.7378   31.6779 O   0  0  0  0  0  0  0  0  0  0  0  0
  -10.9378  -27.4486   32.1508 O   0  0  0  0  0  0  0  0  0  0  0  0
   -9.5815  -24.4913   28.7380 H   0  0  0  0  0  0  0  0  0  0  0  0
   -9.6407  -22.7130   28.7006 H   0  0  0  0  0  0  0  0  0  0  0  0
  -10.8388  -23.6605   27.8102 H   0  0  0  0  0  0  0  0  0  0  0  0
  -11.6632  -22.7187   29.8905 H   0  0  0  0  0  0  0  0  0  0  0  0
  -10.2197  -21.6668   31.4590 H   0  0  0  0  0  0  0  0  0  0  0  0
   -8.4822  -21.9666   33.1594 H   0  0  0  0  0  0  0  0  0  0  0  0
   -7.7586  -24.2193   33.8682 H   0  0  0  0  0  0  0  0  0  0  0  0
   -8.9429  -26.1988   32.9788 H   0  0  0  0  0  0  0  0  0  0  0  0
  -11.6406  -27.7772   29.5596 H   0  0  0  0  0  0  0  0  0  0  0  0
  -12.0513  -26.1018   29.1223 H   0  0  0  0  0  0  0  0  0  0  0  0
  -10.3473  -26.5827   29.2608 H   0  0  0  0  0  0  0  0  0  0  0  0
  1  2  1  0
  2  3  1  0
  3  4  2  0
  4  5  1  0
  5  6  2  0
  6  7  1  0
  7  8  2  0
  8  9  1  0
  9 10  1  0
  9 11  2  0
  9 12  2  0
  8  3  1  0
  1 13  1  0
  1 14  1  0
  1 15  1  0
  2 16  1  0
  4 17  1  0
  5 18  1  0
  6 19  1  0
  7 20  1  0
 10 21  1  0
 10 22  1  0
 10 23  1  0
M  END
>  <Energy>  (753) 
64.256958691947645

>  <compound_id>  (753) 
31

>  <target_id>  (753) 
1

>  <reference_id>  (753) 
96

>  <inspiration_ids>  (753) 
[35, 96]

>  <energy_score>  (753) 
-12.38891854218835

>  <distance_score>  (753) 
1.449454789297396

>  <path>  (753) 
/opt/xchem-fragalysis-2/maxwin/BulkDock/SCRATCH/505732/C31-P96/C31-P96.minimised.mol

>  <scratch_subdir>  (753) 
/opt/xchem-fragalysis-2/maxwin/BulkDock/SCRATCH/505732/C31-P96

>  <fragmenstein_runtime>  (753) 
3.742213249206543

>  <fragmenstein_outcome>  (753) 
too moved

>  <fragmenstein_mode>  (753) 
expansion

>  <fragmenstein_error>  (753) 


$$$$
C2040-P35
     RDKit          3D

 54 55  0  0  0  0  0  0  0  0999 V2000
  -13.0323  -22.8654   30.8625 C   0  0  0  0  0  0  0  0  0  0  0  0
  -12.3770  -23.6816   31.8493 N   0  0  0  0  0  0  0  0  0  0  0  0
  -11.6143  -23.0027   32.8023 C   0  0  0  0  0  0  0  0  0  0  0  0
  -12.0771  -21.7856   33.3556 C   0  0  0  0  0  0  0  0  0  0  0  0
  -11.4434  -21.1369   34.4101 C   0  0  0  0  0  0  0  0  0  0  0  0
  -10.3479  -21.7346   34.9847 C   0  0  0  0  0  0  0  0  0  0  0  0
   -9.9114  -22.9646   34.4869 C   0  0  0  0  0  0  0  0  0  0  0  0
  -10.5157  -23.6074   33.3895 C   0  0  0  0  0  0  0  0  0  0  0  0
   -9.7716  -25.1236   32.8058 S   0  0  0  0  0  0  0  0  0  0  0  0
   -8.7317  -24.7053   31.8946 O   0  0  0  0  0  0  0  0  0  0  0  0
   -9.3979  -25.8780   33.9897 O   0  0  0  0  0  0  0  0  0  0  0  0
  -10.7915  -26.2183   31.8808 C   0  0  0  0  0  0  0  0  0  0  0  0
  -10.1041  -26.9968   30.8252 N   0  0  0  0  0  0  0  0  0  0  0  0
  -10.8160  -28.1637   30.2444 N   0  0  0  0  0  0  0  0  0  0  0  0
  -12.0847  -28.1471   29.3765 S   0  0  0  0  0  0  0  0  0  0  0  0
  -13.4532  -27.7768   30.4382 C   0  0  0  0  0  0  0  0  0  0  0  0
  -12.5530  -29.2313   28.5336 O   0  0  0  0  0  0  0  0  0  0  0  0
  -11.7758  -26.9021   28.2682 N   0  0  0  0  0  0  0  0  0  0  0  0
  -11.1370  -27.1836   26.9903 C   0  0  0  0  0  0  0  0  0  0  0  0
  -11.7012  -26.3575   25.8273 C   0  0  0  0  0  0  0  0  0  0  0  0
  -13.1725  -26.1043   26.0281 C   0  0  0  0  0  0  0  0  0  0  0  0
  -13.3968  -25.3431   27.3405 C   0  0  0  0  0  0  0  0  0  0  0  0
  -14.7687  -25.7547   27.8764 C   0  0  0  0  0  0  0  0  0  0  0  0
  -12.2842  -25.5487   28.3835 C   0  0  0  0  0  0  0  0  0  0  0  0
  -11.1884  -24.4616   28.2823 C   0  0  0  0  0  0  0  0  0  0  0  0
  -10.1521  -24.7025   29.2106 O   0  0  0  0  0  0  0  0  0  0  0  0
  -12.3370  -22.1702   30.3799 H   0  0  0  0  0  0  0  0  0  0  0  0
  -13.4644  -23.5007   30.0874 H   0  0  0  0  0  0  0  0  0  0  0  0
  -13.8723  -22.3076   31.2882 H   0  0  0  0  0  0  0  0  0  0  0  0
  -13.0652  -24.2518   32.3594 H   0  0  0  0  0  0  0  0  0  0  0  0
  -12.9908  -21.3299   32.9903 H   0  0  0  0  0  0  0  0  0  0  0  0
  -11.8220  -20.1910   34.7851 H   0  0  0  0  0  0  0  0  0  0  0  0
   -9.8375  -21.2733   35.8246 H   0  0  0  0  0  0  0  0  0  0  0  0
   -9.0936  -23.4555   34.9970 H   0  0  0  0  0  0  0  0  0  0  0  0
  -11.5764  -25.6735   31.3861 H   0  0  0  0  0  0  0  0  0  0  0  0
  -11.2135  -26.9286   32.5928 H   0  0  0  0  0  0  0  0  0  0  0  0
   -9.1810  -27.2764   31.1929 H   0  0  0  0  0  0  0  0  0  0  0  0
  -13.4715  -28.5311   31.2291 H   0  0  0  0  0  0  0  0  0  0  0  0
  -13.3665  -26.7906   30.8846 H   0  0  0  0  0  0  0  0  0  0  0  0
  -14.3806  -27.8529   29.8713 H   0  0  0  0  0  0  0  0  0  0  0  0
  -11.2616  -28.2379   26.7257 H   0  0  0  0  0  0  0  0  0  0  0  0
  -10.0608  -27.0430   27.0955 H   0  0  0  0  0  0  0  0  0  0  0  0
  -11.5036  -26.8669   24.8878 H   0  0  0  0  0  0  0  0  0  0  0  0
  -11.2267  -25.3830   25.7202 H   0  0  0  0  0  0  0  0  0  0  0  0
  -13.7021  -27.0649   26.0336 H   0  0  0  0  0  0  0  0  0  0  0  0
  -13.5948  -25.5321   25.1958 H   0  0  0  0  0  0  0  0  0  0  0  0
  -13.3942  -24.2854   27.0804 H   0  0  0  0  0  0  0  0  0  0  0  0
  -15.5538  -25.4669   27.1701 H   0  0  0  0  0  0  0  0  0  0  0  0
  -14.8436  -26.8380   28.0041 H   0  0  0  0  0  0  0  0  0  0  0  0
  -14.9754  -25.2866   28.8424 H   0  0  0  0  0  0  0  0  0  0  0  0
  -12.7078  -25.4203   29.3799 H   0  0  0  0  0  0  0  0  0  0  0  0
  -11.6118  -23.4773   28.5013 H   0  0  0  0  0  0  0  0  0  0  0  0
  -10.7275  -24.3714   27.3019 H   0  0  0  0  0  0  0  0  0  0  0  0
   -9.9929  -25.6702   29.2432 H   0  0  0  0  0  0  0  0  0  0  0  0
  1  2  1  0
  2  3  1  0
  3  4  2  0
  4  5  1  0
  5  6  2  0
  6  7  1  0
  7  8  2  0
  8  9  1  0
  9 10  2  0
  9 11  2  0
  9 12  1  0
 12 13  1  0
 13 14  1  0
 14 15  2  0
 15 16  1  0
 15 17  2  0
 15 18  1  0
 18 19  1  0
 19 20  1  0
 20 21  1  0
 21 22  1  0
 22 23  1  0
 22 24  1  0
 24 25  1  0
 25 26  1  0
  8  3  1  0
 24 18  1  0
  1 27  1  0
  1 28  1  0
  1 29  1  0
  2 30  1  0
  4 31  1  0
  5 32  1  0
  6 33  1  0
  7 34  1  0
 12 35  1  0
 12 36  1  0
 13 37  1  0
 16 38  1  0
 16 39  1  0
 16 40  1  0
 19 41  1  0
 19 42  1  0
 20 43  1  0
 20 44  1  0
 21 45  1  0
 21 46  1  0
 22 47  1  0
 23 48  1  0
 23 49  1  0
 23 50  1  0
 24 51  1  0
 25 52  1  0
 25 53  1  0
 26 54  1  0
M  END
>  <Energy>  (754) 
133.4479727593145

>  <compound_id>  (754) 
2040

>  <target_id>  (754) 
1

>  <reference_id>  (754) 
35

>  <inspiration_ids>  (754) 
[35, 101]

>  <energy_score>  (754) 
-39.942446943851394

>  <distance_score>  (754) 
1.8200848709296698

>  <path>  (754) 
/opt/xchem-fragalysis-2/maxwin/BulkDock/SCRATCH/505732/C2040-P35/C2040-P35.minimised.mol

>  <scratch_subdir>  (754) 
/opt/xchem-fragalysis-2/maxwin/BulkDock/SCRATCH/505732/C2040-P35

>  <fragmenstein_runtime>  (754) 
122.19932627677917

>  <fragmenstein_outcome>  (754) 
too moved

>  <fragmenstein_mode>  (754) 
expansion

>  <fragmenstein_error>  (754) 


$$$$
C2040-P101
     RDKit          3D

 54 55  0  0  0  0  0  0  0  0999 V2000
  -12.1261  -22.1465   29.2607 C   0  0  0  0  0  0  0  0  0  0  0  0
  -12.9888  -22.9931   30.0730 N   0  0  0  0  0  0  0  0  0  0  0  0
  -12.7327  -23.0099   31.4544 C   0  0  0  0  0  0  0  0  0  0  0  0
  -13.7736  -22.5981   32.3028 C   0  0  0  0  0  0  0  0  0  0  0  0
  -13.5035  -21.6915   33.3053 C   0  0  0  0  0  0  0  0  0  0  0  0
  -12.2435  -21.1228   33.3100 C   0  0  0  0  0  0  0  0  0  0  0  0
  -11.2507  -21.6318   32.4625 C   0  0  0  0  0  0  0  0  0  0  0  0
  -11.4410  -22.8350   31.8405 C   0  0  0  0  0  0  0  0  0  0  0  0
  -10.4087  -24.2806   32.2111 S   0  0  0  0  0  0  0  0  0  0  0  0
   -9.2132  -23.7197   32.8162 O   0  0  0  0  0  0  0  0  0  0  0  0
  -11.2045  -25.1076   33.0819 O   0  0  0  0  0  0  0  0  0  0  0  0
   -9.8468  -25.0329   30.6250 C   0  0  0  0  0  0  0  0  0  0  0  0
  -10.1458  -26.3200   29.9592 N   0  0  0  0  0  0  0  0  0  0  0  0
  -10.1616  -26.3076   28.1932 N   0  0  0  0  0  0  0  0  0  0  0  0
  -11.6395  -26.5831   27.7811 S   0  0  0  0  0  0  0  0  0  0  0  0
  -12.3023  -25.1007   28.5580 C   0  0  0  0  0  0  0  0  0  0  0  0
  -12.2301  -27.8687   28.0993 O   0  0  0  0  0  0  0  0  0  0  0  0
  -12.2277  -26.3625   26.1406 N   0  0  0  0  0  0  0  0  0  0  0  0
  -13.2695  -27.3331   25.7044 C   0  0  0  0  0  0  0  0  0  0  0  0
  -14.7391  -27.0624   26.0216 C   0  0  0  0  0  0  0  0  0  0  0  0
  -15.1307  -25.6255   25.7541 C   0  0  0  0  0  0  0  0  0  0  0  0
  -14.0377  -24.9282   24.9379 C   0  0  0  0  0  0  0  0  0  0  0  0
  -14.4829  -23.5070   24.6273 C   0  0  0  0  0  0  0  0  0  0  0  0
  -12.6995  -24.9963   25.7406 C   0  0  0  0  0  0  0  0  0  0  0  0
  -11.4649  -24.2515   25.2678 C   0  0  0  0  0  0  0  0  0  0  0  0
  -10.6291  -24.0285   26.3934 O   0  0  0  0  0  0  0  0  0  0  0  0
  -12.3526  -22.3027   28.2124 H   0  0  0  0  0  0  0  0  0  0  0  0
  -11.0819  -22.4027   29.3443 H   0  0  0  0  0  0  0  0  0  0  0  0
  -12.2332  -21.0925   29.5108 H   0  0  0  0  0  0  0  0  0  0  0  0
  -13.9760  -23.0832   29.8674 H   0  0  0  0  0  0  0  0  0  0  0  0
  -14.8010  -22.8820   32.1013 H   0  0  0  0  0  0  0  0  0  0  0  0
  -14.2929  -21.3286   33.9518 H   0  0  0  0  0  0  0  0  0  0  0  0
  -12.0301  -20.2678   33.9477 H   0  0  0  0  0  0  0  0  0  0  0  0
  -10.3194  -21.1037   32.3147 H   0  0  0  0  0  0  0  0  0  0  0  0
   -8.7692  -25.0521   30.7376 H   0  0  0  0  0  0  0  0  0  0  0  0
  -10.1078  -24.3013   29.8778 H   0  0  0  0  0  0  0  0  0  0  0  0
   -9.5860  -27.1028   30.3084 H   0  0  0  0  0  0  0  0  0  0  0  0
  -11.7004  -24.2782   28.2051 H   0  0  0  0  0  0  0  0  0  0  0  0
  -12.1005  -25.1213   29.6096 H   0  0  0  0  0  0  0  0  0  0  0  0
  -13.3396  -24.8814   28.3413 H   0  0  0  0  0  0  0  0  0  0  0  0
  -13.0570  -28.3434   26.0590 H   0  0  0  0  0  0  0  0  0  0  0  0
  -13.2091  -27.3831   24.6145 H   0  0  0  0  0  0  0  0  0  0  0  0
  -15.0002  -27.3459   27.0407 H   0  0  0  0  0  0  0  0  0  0  0  0
  -15.3455  -27.7173   25.3817 H   0  0  0  0  0  0  0  0  0  0  0  0
  -15.2909  -25.1131   26.7077 H   0  0  0  0  0  0  0  0  0  0  0  0
  -16.0917  -25.5965   25.2262 H   0  0  0  0  0  0  0  0  0  0  0  0
  -13.9823  -25.4705   23.9970 H   0  0  0  0  0  0  0  0  0  0  0  0
  -15.5120  -23.4585   24.2634 H   0  0  0  0  0  0  0  0  0  0  0  0
  -14.5017  -22.9260   25.5297 H   0  0  0  0  0  0  0  0  0  0  0  0
  -13.8226  -23.0189   23.9072 H   0  0  0  0  0  0  0  0  0  0  0  0
  -13.0037  -24.4157   26.5988 H   0  0  0  0  0  0  0  0  0  0  0  0
  -11.7269  -23.2875   24.8289 H   0  0  0  0  0  0  0  0  0  0  0  0
  -10.8680  -24.8130   24.5572 H   0  0  0  0  0  0  0  0  0  0  0  0
  -10.1929  -24.8600   26.6657 H   0  0  0  0  0  0  0  0  0  0  0  0
  1  2  1  0
  2  3  1  0
  3  4  2  0
  4  5  1  0
  5  6  2  0
  6  7  1  0
  7  8  2  0
  8  9  1  0
  9 10  2  0
  9 11  2  0
  9 12  1  0
 12 13  1  0
 13 14  1  0
 14 15  2  0
 15 16  1  0
 15 17  2  0
 15 18  1  0
 18 19  1  0
 19 20  1  0
 20 21  1  0
 21 22  1  0
 22 23  1  0
 22 24  1  0
 24 25  1  0
 25 26  1  0
  8  3  1  0
 24 18  1  0
  1 27  1  0
  1 28  1  0
  1 29  1  0
  2 30  1  0
  4 31  1  0
  5 32  1  0
  6 33  1  0
  7 34  1  0
 12 35  1  0
 12 36  1  0
 13 37  1  0
 16 38  1  0
 16 39  1  0
 16 40  1  0
 19 41  1  0
 19 42  1  0
 20 43  1  0
 20 44  1  0
 21 45  1  0
 21 46  1  0
 22 47  1  0
 23 48  1  0
 23 49  1  0
 23 50  1  0
 24 51  1  0
 25 52  1  0
 25 53  1  0
 26 54  1  0
M  END
>  <Energy>  (755) 
256.62924942790744

>  <compound_id>  (755) 
2040

>  <target_id>  (755) 
1

>  <reference_id>  (755) 
101

>  <inspiration_ids>  (755) 
[35, 101]

>  <energy_score>  (755) 
67.85805912912406

>  <distance_score>  (755) 
2.8137543730489356

>  <path>  (755) 
/opt/xchem-fragalysis-2/maxwin/BulkDock/SCRATCH/505732/C2040-P101/C2040-P101.minimised.mol

>  <scratch_subdir>  (755) 
/opt/xchem-fragalysis-2/maxwin/BulkDock/SCRATCH/505732/C2040-P101

>  <fragmenstein_runtime>  (755) 
82.15932559967041

>  <fragmenstein_outcome>  (755) 
too moved

>  <fragmenstein_mode>  (755) 
expansion

>  <fragmenstein_error>  (755) 


$$$$
C2041-P35
     RDKit          3D

 34 34  0  0  0  0  0  0  0  0999 V2000
  -11.5043  -23.3018   30.1108 C   0  0  0  0  0  0  0  0  0  0  0  0
  -10.7358  -23.4322   28.8687 N   0  0  0  0  0  0  0  0  0  0  0  0
  -10.6522  -24.7209   28.3252 C   0  0  0  0  0  0  0  0  0  0  0  0
   -9.9320  -25.7060   28.9754 C   0  0  0  0  0  0  0  0  0  0  0  0
   -9.9308  -27.0250   28.5009 C   0  0  0  0  0  0  0  0  0  0  0  0
   -9.6039  -28.0155   29.4367 N   0  0  0  0  0  0  0  0  0  0  0  0
  -10.5741  -27.3193   27.2788 C   0  0  0  0  0  0  0  0  0  0  0  0
  -10.7185  -28.5524   26.7952 F   0  0  0  0  0  0  0  0  0  0  0  0
  -11.2770  -26.3706   26.5973 C   0  0  0  0  0  0  0  0  0  0  0  0
  -11.3740  -25.1325   27.1983 C   0  0  0  0  0  0  0  0  0  0  0  0
  -12.8758  -24.3538   26.8994 S   0  0  0  0  0  0  0  0  0  0  0  0
  -13.1887  -24.4693   25.4858 O   0  0  0  0  0  0  0  0  0  0  0  0
  -12.7498  -23.0453   27.5088 O   0  0  0  0  0  0  0  0  0  0  0  0
  -13.9755  -25.3725   27.8338 C   0  0  0  0  0  0  0  0  0  0  0  0
  -13.7517  -26.2435   28.8434 C   0  0  0  0  0  0  0  0  0  0  0  0
  -12.6933  -26.7875   29.5819 N   0  0  0  0  0  0  0  0  0  0  0  0
  -12.5937  -28.2780   29.6145 C   0  0  0  0  0  0  0  0  0  0  0  0
  -12.4648  -26.3204   30.9644 C   0  0  0  0  0  0  0  0  0  0  0  0
  -11.0595  -23.8790   30.9263 H   0  0  0  0  0  0  0  0  0  0  0  0
  -12.5506  -23.5813   29.9728 H   0  0  0  0  0  0  0  0  0  0  0  0
  -11.5020  -22.2496   30.4169 H   0  0  0  0  0  0  0  0  0  0  0  0
  -11.1521  -22.7853   28.1800 H   0  0  0  0  0  0  0  0  0  0  0  0
   -9.4415  -25.4698   29.9160 H   0  0  0  0  0  0  0  0  0  0  0  0
   -9.2494  -28.8699   29.0341 H   0  0  0  0  0  0  0  0  0  0  0  0
   -9.0625  -27.7123   30.2399 H   0  0  0  0  0  0  0  0  0  0  0  0
  -11.8820  -26.6553   25.7469 H   0  0  0  0  0  0  0  0  0  0  0  0
  -14.9962  -25.2833   27.4841 H   0  0  0  0  0  0  0  0  0  0  0  0
  -14.6631  -26.7376   29.1933 H   0  0  0  0  0  0  0  0  0  0  0  0
  -12.4739  -28.6873   28.6084 H   0  0  0  0  0  0  0  0  0  0  0  0
  -11.7858  -28.6328   30.2588 H   0  0  0  0  0  0  0  0  0  0  0  0
  -13.5223  -28.7005   30.0206 H   0  0  0  0  0  0  0  0  0  0  0  0
  -12.8793  -25.3255   31.1280 H   0  0  0  0  0  0  0  0  0  0  0  0
  -12.9961  -27.0025   31.6323 H   0  0  0  0  0  0  0  0  0  0  0  0
  -11.4052  -26.3360   31.2284 H   0  0  0  0  0  0  0  0  0  0  0  0
  1  2  1  0
  2  3  1  0
  3  4  2  0
  4  5  1  0
  5  6  1  0
  5  7  2  0
  7  8  1  0
  7  9  1  0
  9 10  2  0
 10 11  1  0
 11 12  2  0
 11 13  2  0
 11 14  1  0
 14 15  2  3
 15 16  1  0
 16 17  1  0
 16 18  1  0
 10  3  1  0
  1 19  1  0
  1 20  1  0
  1 21  1  0
  2 22  1  0
  4 23  1  0
  6 24  1  0
  6 25  1  0
  9 26  1  0
 14 27  1  0
 15 28  1  0
 17 29  1  0
 17 30  1  0
 17 31  1  0
 18 32  1  0
 18 33  1  0
 18 34  1  0
M  END
>  <Energy>  (756) 
133.00674655216289

>  <compound_id>  (756) 
2041

>  <target_id>  (756) 
1

>  <reference_id>  (756) 
35

>  <inspiration_ids>  (756) 
[35, 104]

>  <energy_score>  (756) 
15.769714169671147

>  <distance_score>  (756) 
2.3089278083093934

>  <path>  (756) 
/opt/xchem-fragalysis-2/maxwin/BulkDock/SCRATCH/505732/C2041-P35/C2041-P35.minimised.mol

>  <scratch_subdir>  (756) 
/opt/xchem-fragalysis-2/maxwin/BulkDock/SCRATCH/505732/C2041-P35

>  <fragmenstein_runtime>  (756) 
8.635066270828247

>  <fragmenstein_outcome>  (756) 
too moved

>  <fragmenstein_mode>  (756) 
expansion

>  <fragmenstein_error>  (756) 


$$$$
C2041-P104
     RDKit          3D

 34 34  0  0  0  0  0  0  0  0999 V2000
  -12.4785  -22.2179   23.6942 C   0  0  0  0  0  0  0  0  0  0  0  0
  -11.6039  -23.3278   24.0386 N   0  0  0  0  0  0  0  0  0  0  0  0
  -11.8473  -24.1921   25.0568 C   0  0  0  0  0  0  0  0  0  0  0  0
  -11.2143  -25.3805   25.2429 C   0  0  0  0  0  0  0  0  0  0  0  0
  -11.9416  -26.5322   25.5242 C   0  0  0  0  0  0  0  0  0  0  0  0
  -11.3603  -27.8024   25.4767 N   0  0  0  0  0  0  0  0  0  0  0  0
  -13.2126  -26.3516   26.0130 C   0  0  0  0  0  0  0  0  0  0  0  0
  -13.9184  -27.4297   26.3646 F   0  0  0  0  0  0  0  0  0  0  0  0
  -13.6477  -25.0710   26.2997 C   0  0  0  0  0  0  0  0  0  0  0  0
  -12.7998  -24.0074   25.9708 C   0  0  0  0  0  0  0  0  0  0  0  0
  -11.9978  -23.0806   27.2717 S   0  0  0  0  0  0  0  0  0  0  0  0
  -12.8175  -23.4355   28.3729 O   0  0  0  0  0  0  0  0  0  0  0  0
  -11.9237  -21.7076   26.8444 O   0  0  0  0  0  0  0  0  0  0  0  0
  -10.4699  -23.7830   27.7744 C   0  0  0  0  0  0  0  0  0  0  0  0
  -10.5515  -24.9855   28.3682 C   0  0  0  0  0  0  0  0  0  0  0  0
   -9.7077  -25.7330   29.1777 N   0  0  0  0  0  0  0  0  0  0  0  0
   -9.7740  -27.1815   28.9738 C   0  0  0  0  0  0  0  0  0  0  0  0
   -9.6102  -25.4109   30.6249 C   0  0  0  0  0  0  0  0  0  0  0  0
  -12.1236  -21.7791   22.7579 H   0  0  0  0  0  0  0  0  0  0  0  0
  -12.4802  -21.4319   24.4521 H   0  0  0  0  0  0  0  0  0  0  0  0
  -13.5078  -22.5584   23.5468 H   0  0  0  0  0  0  0  0  0  0  0  0
  -10.7336  -23.3880   23.5111 H   0  0  0  0  0  0  0  0  0  0  0  0
  -10.1751  -25.3553   25.0007 H   0  0  0  0  0  0  0  0  0  0  0  0
  -10.9649  -28.0231   26.3867 H   0  0  0  0  0  0  0  0  0  0  0  0
  -12.0492  -28.5306   25.2471 H   0  0  0  0  0  0  0  0  0  0  0  0
  -14.5519  -24.9188   26.8704 H   0  0  0  0  0  0  0  0  0  0  0  0
   -9.6014  -23.1561   27.8400 H   0  0  0  0  0  0  0  0  0  0  0  0
  -11.4777  -25.5268   28.2487 H   0  0  0  0  0  0  0  0  0  0  0  0
  -10.7886  -27.5339   28.7841 H   0  0  0  0  0  0  0  0  0  0  0  0
   -9.1928  -27.3952   28.0737 H   0  0  0  0  0  0  0  0  0  0  0  0
   -9.3696  -27.7435   29.8184 H   0  0  0  0  0  0  0  0  0  0  0  0
  -10.2225  -24.5485   30.9017 H   0  0  0  0  0  0  0  0  0  0  0  0
   -9.8883  -26.2489   31.2613 H   0  0  0  0  0  0  0  0  0  0  0  0
   -8.5755  -25.2032   30.8820 H   0  0  0  0  0  0  0  0  0  0  0  0
  1  2  1  0
  2  3  1  0
  3  4  2  0
  4  5  1  0
  5  6  1  0
  5  7  2  0
  7  8  1  0
  7  9  1  0
  9 10  2  0
 10 11  1  0
 11 12  2  0
 11 13  2  0
 11 14  1  0
 14 15  2  3
 15 16  1  0
 16 17  1  0
 16 18  1  0
 10  3  1  0
  1 19  1  0
  1 20  1  0
  1 21  1  0
  2 22  1  0
  4 23  1  0
  6 24  1  0
  6 25  1  0
  9 26  1  0
 14 27  1  0
 15 28  1  0
 17 29  1  0
 17 30  1  0
 17 31  1  0
 18 32  1  0
 18 33  1  0
 18 34  1  0
M  END
>  <Energy>  (757) 
165.55733565395502

>  <compound_id>  (757) 
2041

>  <target_id>  (757) 
1

>  <reference_id>  (757) 
104

>  <inspiration_ids>  (757) 
[35, 104]

>  <energy_score>  (757) 
48.32030327146529

>  <distance_score>  (757) 
2.8182042902291475

>  <path>  (757) 
/opt/xchem-fragalysis-2/maxwin/BulkDock/SCRATCH/505732/C2041-P104/C2041-P104.minimised.mol

>  <scratch_subdir>  (757) 
/opt/xchem-fragalysis-2/maxwin/BulkDock/SCRATCH/505732/C2041-P104

>  <fragmenstein_runtime>  (757) 
8.64302396774292

>  <fragmenstein_outcome>  (757) 
too moved

>  <fragmenstein_mode>  (757) 
expansion

>  <fragmenstein_error>  (757) 


$$$$
C31-P35
     RDKit          2D

  0  0  0  0  0  0  0  0  0  0999 V2000
M  END
>  <compound_id>  (758) 
31

>  <target_id>  (758) 
1

>  <reference_id>  (758) 
35

>  <inspiration_ids>  (758) 
[35, 161]

>  <energy_score>  (758) 
nan

>  <distance_score>  (758) 
nan

>  <path>  (758) 
/opt/xchem-fragalysis-2/maxwin/BulkDock/SCRATCH/505732/C31-P35/C31-P35.minimised.mol

>  <scratch_subdir>  (758) 
/opt/xchem-fragalysis-2/maxwin/BulkDock/SCRATCH/505732/C31-P35

>  <fragmenstein_runtime>  (758) 
1.010453224182129

>  <fragmenstein_outcome>  (758) 
too distant

>  <fragmenstein_mode>  (758) 
expansion

>  <fragmenstein_error>  (758) 
DistanceError: hit1

$$$$
C2049-P36
     RDKit          3D

 30 30  0  0  0  0  0  0  0  0999 V2000
   14.9941    0.4409   17.1546 C   0  0  0  0  0  0  0  0  0  0  0  0
   15.1600   -0.9866   16.8996 N   0  0  0  0  0  0  0  0  0  0  0  0
   14.0666   -1.6188   16.2569 C   0  0  0  0  0  0  0  0  0  0  0  0
   13.4446   -1.1080   15.1008 C   0  0  0  0  0  0  0  0  0  0  0  0
   13.9731   -0.0898   14.3402 O   0  0  0  0  0  0  0  0  0  0  0  0
   15.2246   -0.4699   13.7598 C   0  0  0  0  0  0  0  0  0  0  0  0
   15.2137   -1.7133   12.8752 C   0  0  0  0  0  0  0  0  0  0  0  0
   14.4368   -1.9474   11.9631 O   0  0  0  0  0  0  0  0  0  0  0  0
   16.1753   -2.6009   13.2116 O   0  0  0  0  0  0  0  0  0  0  0  0
   12.2493   -1.6512   14.6141 C   0  0  0  0  0  0  0  0  0  0  0  0
   11.7151   -2.7970   15.1899 C   0  0  0  0  0  0  0  0  0  0  0  0
   12.4151   -3.4376   16.2043 C   0  0  0  0  0  0  0  0  0  0  0  0
   13.6011   -2.8728   16.6924 C   0  0  0  0  0  0  0  0  0  0  0  0
   14.5770   -3.8204   17.8260 S   0  0  0  0  0  0  0  0  0  0  0  0
   16.0868   -4.1209   16.9373 C   0  0  0  0  0  0  0  0  0  0  0  0
   14.8644   -2.9570   18.9562 O   0  0  0  0  0  0  0  0  0  0  0  0
   13.9389   -5.1085   18.0173 O   0  0  0  0  0  0  0  0  0  0  0  0
   15.0947    1.0402   16.2465 H   0  0  0  0  0  0  0  0  0  0  0  0
   15.7817    0.7711   17.8402 H   0  0  0  0  0  0  0  0  0  0  0  0
   14.0302    0.6538   17.6299 H   0  0  0  0  0  0  0  0  0  0  0  0
   15.3224   -1.4116   17.8230 H   0  0  0  0  0  0  0  0  0  0  0  0
   15.5418    0.3590   13.1162 H   0  0  0  0  0  0  0  0  0  0  0  0
   16.0054   -0.5600   14.5223 H   0  0  0  0  0  0  0  0  0  0  0  0
   15.9980   -3.4073   12.6659 H   0  0  0  0  0  0  0  0  0  0  0  0
   11.7589   -1.2049   13.7507 H   0  0  0  0  0  0  0  0  0  0  0  0
   10.8008   -3.2266   14.7880 H   0  0  0  0  0  0  0  0  0  0  0  0
   12.0478   -4.3884   16.5857 H   0  0  0  0  0  0  0  0  0  0  0  0
   15.8495   -4.6142   15.9928 H   0  0  0  0  0  0  0  0  0  0  0  0
   16.7059   -4.7819   17.5487 H   0  0  0  0  0  0  0  0  0  0  0  0
   16.6206   -3.1875   16.7628 H   0  0  0  0  0  0  0  0  0  0  0  0
  1  2  1  0
  2  3  1  0
  3  4  2  0
  4  5  1  0
  5  6  1  0
  6  7  1  0
  7  8  2  0
  7  9  1  0
  4 10  1  0
 10 11  2  0
 11 12  1  0
 12 13  2  0
 13 14  1  0
 14 15  1  0
 14 16  2  0
 14 17  2  0
 13  3  1  0
  1 18  1  0
  1 19  1  0
  1 20  1  0
  2 21  1  0
  6 22  1  0
  6 23  1  0
  9 24  1  0
 10 25  1  0
 11 26  1  0
 12 27  1  0
 15 28  1  0
 15 29  1  0
 15 30  1  0
M  END
>  <Energy>  (759) 
74.987265168999571

>  <compound_id>  (759) 
2049

>  <target_id>  (759) 
1

>  <reference_id>  (759) 
36

>  <inspiration_ids>  (759) 
[36, 4]

>  <energy_score>  (759) 
-45.21716280079616

>  <distance_score>  (759) 
1.0391038558697552

>  <path>  (759) 
/opt/xchem-fragalysis-2/maxwin/BulkDock/SCRATCH/505732/C2049-P36/C2049-P36.minimised.mol

>  <scratch_subdir>  (759) 
/opt/xchem-fragalysis-2/maxwin/BulkDock/SCRATCH/505732/C2049-P36

>  <fragmenstein_runtime>  (759) 
1.9705212116241455

>  <fragmenstein_outcome>  (759) 
too moved

>  <fragmenstein_mode>  (759) 
expansion

>  <fragmenstein_error>  (759) 


$$$$
C2049-P4
     RDKit          3D

 30 30  0  0  0  0  0  0  0  0999 V2000
   15.6722    0.0508   17.4058 C   0  0  0  0  0  0  0  0  0  0  0  0
   15.4942   -0.5939   16.1084 N   0  0  0  0  0  0  0  0  0  0  0  0
   14.3766   -1.4103   15.8542 C   0  0  0  0  0  0  0  0  0  0  0  0
   13.6691   -1.1763   14.6479 C   0  0  0  0  0  0  0  0  0  0  0  0
   14.0753   -0.2002   13.7668 O   0  0  0  0  0  0  0  0  0  0  0  0
   15.1756   -0.5945   12.9522 C   0  0  0  0  0  0  0  0  0  0  0  0
   15.3645   -2.0364   12.4916 C   0  0  0  0  0  0  0  0  0  0  0  0
   14.9921   -2.5010   11.4264 O   0  0  0  0  0  0  0  0  0  0  0  0
   16.0188   -2.7867   13.4005 O   0  0  0  0  0  0  0  0  0  0  0  0
   12.4798   -1.8372   14.3305 C   0  0  0  0  0  0  0  0  0  0  0  0
   11.9949   -2.8300   15.1635 C   0  0  0  0  0  0  0  0  0  0  0  0
   12.7195   -3.1674   16.2988 C   0  0  0  0  0  0  0  0  0  0  0  0
   13.9036   -2.4730   16.6398 C   0  0  0  0  0  0  0  0  0  0  0  0
   14.7742   -3.0823   18.0544 S   0  0  0  0  0  0  0  0  0  0  0  0
   16.3526   -3.5801   17.4074 C   0  0  0  0  0  0  0  0  0  0  0  0
   14.9336   -2.0175   19.0202 O   0  0  0  0  0  0  0  0  0  0  0  0
   14.0789   -4.2715   18.4941 O   0  0  0  0  0  0  0  0  0  0  0  0
   16.4182   -0.4792   18.0016 H   0  0  0  0  0  0  0  0  0  0  0  0
   14.7370    0.1852   17.9522 H   0  0  0  0  0  0  0  0  0  0  0  0
   16.0827    1.0540   17.2412 H   0  0  0  0  0  0  0  0  0  0  0  0
   15.5052    0.1393   15.3961 H   0  0  0  0  0  0  0  0  0  0  0  0
   15.1027    0.0023   12.0339 H   0  0  0  0  0  0  0  0  0  0  0  0
   16.1131   -0.2606   13.4136 H   0  0  0  0  0  0  0  0  0  0  0  0
   15.9978   -3.7098   13.0441 H   0  0  0  0  0  0  0  0  0  0  0  0
   11.9350   -1.5810   13.4287 H   0  0  0  0  0  0  0  0  0  0  0  0
   11.0827   -3.3630   14.9069 H   0  0  0  0  0  0  0  0  0  0  0  0
   12.3583   -3.9946   16.9103 H   0  0  0  0  0  0  0  0  0  0  0  0
   16.9212   -2.7068   17.0904 H   0  0  0  0  0  0  0  0  0  0  0  0
   16.1958   -4.2624   16.5697 H   0  0  0  0  0  0  0  0  0  0  0  0
   16.8928   -4.0949   18.2053 H   0  0  0  0  0  0  0  0  0  0  0  0
  1  2  1  0
  2  3  1  0
  3  4  2  0
  4  5  1  0
  5  6  1  0
  6  7  1  0
  7  8  2  0
  7  9  1  0
  4 10  1  0
 10 11  2  0
 11 12  1  0
 12 13  2  0
 13 14  1  0
 14 15  1  0
 14 16  2  0
 14 17  2  0
 13  3  1  0
  1 18  1  0
  1 19  1  0
  1 20  1  0
  2 21  1  0
  6 22  1  0
  6 23  1  0
  9 24  1  0
 10 25  1  0
 11 26  1  0
 12 27  1  0
 15 28  1  0
 15 29  1  0
 15 30  1  0
M  END
>  <Energy>  (760) 
81.076733104122084

>  <compound_id>  (760) 
2049

>  <target_id>  (760) 
1

>  <reference_id>  (760) 
4

>  <inspiration_ids>  (760) 
[36, 4]

>  <energy_score>  (760) 
-39.12769486567478

>  <distance_score>  (760) 
0.9160978114083849

>  <path>  (760) 
/opt/xchem-fragalysis-2/maxwin/BulkDock/SCRATCH/505732/C2049-P4/C2049-P4.minimised.mol

>  <scratch_subdir>  (760) 
/opt/xchem-fragalysis-2/maxwin/BulkDock/SCRATCH/505732/C2049-P4

>  <fragmenstein_runtime>  (760) 
1.3968651294708252

>  <fragmenstein_outcome>  (760) 
acceptable

>  <fragmenstein_mode>  (760) 
expansion

>  <fragmenstein_error>  (760) 


$$$$
C2051-P36
     RDKit          3D

 25 25  0  0  0  0  0  0  0  0999 V2000
   15.0237   -0.1163   18.1870 C   0  0  0  0  0  0  0  0  0  0  0  0
   15.2135   -0.8768   16.9500 N   0  0  0  0  0  0  0  0  0  0  0  0
   14.0453   -1.5409   16.5278 C   0  0  0  0  0  0  0  0  0  0  0  0
   13.1103   -0.8402   15.7617 C   0  0  0  0  0  0  0  0  0  0  0  0
   11.9622   -1.4635   15.2699 C   0  0  0  0  0  0  0  0  0  0  0  0
   10.9777   -0.6956   14.6591 N   0  0  0  0  0  0  0  0  0  0  0  0
   11.6931   -2.7854   15.6017 C   0  0  0  0  0  0  0  0  0  0  0  0
   12.5669   -3.4841   16.4193 C   0  0  0  0  0  0  0  0  0  0  0  0
   13.7277   -2.8562   16.8929 C   0  0  0  0  0  0  0  0  0  0  0  0
   14.7899   -3.8007   17.9447 S   0  0  0  0  0  0  0  0  0  0  0  0
   16.3465   -3.8535   17.0980 C   0  0  0  0  0  0  0  0  0  0  0  0
   14.9386   -3.0954   19.2017 O   0  0  0  0  0  0  0  0  0  0  0  0
   14.2752   -5.1597   17.9581 O   0  0  0  0  0  0  0  0  0  0  0  0
   14.4354    0.7881   17.9955 H   0  0  0  0  0  0  0  0  0  0  0  0
   14.5240   -0.6900   18.9709 H   0  0  0  0  0  0  0  0  0  0  0  0
   16.0022    0.1942   18.5657 H   0  0  0  0  0  0  0  0  0  0  0  0
   15.5202   -0.2276   16.2234 H   0  0  0  0  0  0  0  0  0  0  0  0
   13.2814    0.2091   15.5351 H   0  0  0  0  0  0  0  0  0  0  0  0
   10.3674   -1.2365   14.0286 H   0  0  0  0  0  0  0  0  0  0  0  0
   11.3415    0.1107   14.1604 H   0  0  0  0  0  0  0  0  0  0  0  0
   10.7942   -3.2751   15.2376 H   0  0  0  0  0  0  0  0  0  0  0  0
   12.3290   -4.5103   16.6886 H   0  0  0  0  0  0  0  0  0  0  0  0
   16.1835   -4.1961   16.0742 H   0  0  0  0  0  0  0  0  0  0  0  0
   16.8226   -2.8743   17.1133 H   0  0  0  0  0  0  0  0  0  0  0  0
   16.9853   -4.5683   17.6228 H   0  0  0  0  0  0  0  0  0  0  0  0
  1  2  1  0
  2  3  1  0
  3  4  2  0
  4  5  1  0
  5  6  1  0
  5  7  2  0
  7  8  1  0
  8  9  2  0
  9 10  1  0
 10 11  1  0
 10 12  2  0
 10 13  2  0
  9  3  1  0
  1 14  1  0
  1 15  1  0
  1 16  1  0
  2 17  1  0
  4 18  1  0
  6 19  1  0
  6 20  1  0
  7 21  1  0
  8 22  1  0
 11 23  1  0
 11 24  1  0
 11 25  1  0
M  END
>  <Energy>  (761) 
47.287957030918705

>  <compound_id>  (761) 
2051

>  <target_id>  (761) 
1

>  <reference_id>  (761) 
36

>  <inspiration_ids>  (761) 
[36, 6]

>  <energy_score>  (761) 
-32.787555919496626

>  <distance_score>  (761) 
1.6559743834074399

>  <path>  (761) 
/opt/xchem-fragalysis-2/maxwin/BulkDock/SCRATCH/505732/C2051-P36/C2051-P36.minimised.mol

>  <scratch_subdir>  (761) 
/opt/xchem-fragalysis-2/maxwin/BulkDock/SCRATCH/505732/C2051-P36

>  <fragmenstein_runtime>  (761) 
0.9441561698913574

>  <fragmenstein_outcome>  (761) 
too moved

>  <fragmenstein_mode>  (761) 
expansion

>  <fragmenstein_error>  (761) 


$$$$
C2051-P6
     RDKit          3D

 25 25  0  0  0  0  0  0  0  0999 V2000
   14.8425    0.0753   18.3780 C   0  0  0  0  0  0  0  0  0  0  0  0
   14.9588   -0.2691   16.9599 N   0  0  0  0  0  0  0  0  0  0  0  0
   13.9490   -1.1464   16.5232 C   0  0  0  0  0  0  0  0  0  0  0  0
   12.8022   -0.6111   15.9302 C   0  0  0  0  0  0  0  0  0  0  0  0
   11.7636   -1.4308   15.4768 C   0  0  0  0  0  0  0  0  0  0  0  0
   10.5852   -0.8488   15.0125 N   0  0  0  0  0  0  0  0  0  0  0  0
   11.8045   -2.7998   15.7074 C   0  0  0  0  0  0  0  0  0  0  0  0
   12.9039   -3.3508   16.3422 C   0  0  0  0  0  0  0  0  0  0  0  0
   13.9734   -2.5259   16.7333 C   0  0  0  0  0  0  0  0  0  0  0  0
   15.3640   -3.3487   17.4251 S   0  0  0  0  0  0  0  0  0  0  0  0
   16.8427   -2.4706   17.0772 C   0  0  0  0  0  0  0  0  0  0  0  0
   15.1531   -3.3952   18.8600 O   0  0  0  0  0  0  0  0  0  0  0  0
   15.5065   -4.5785   16.6679 O   0  0  0  0  0  0  0  0  0  0  0  0
   13.9453    0.6765   18.5578 H   0  0  0  0  0  0  0  0  0  0  0  0
   15.7103    0.6758   18.6682 H   0  0  0  0  0  0  0  0  0  0  0  0
   14.8148   -0.8044   19.0256 H   0  0  0  0  0  0  0  0  0  0  0  0
   14.9434    0.5899   16.4069 H   0  0  0  0  0  0  0  0  0  0  0  0
   12.7151    0.4656   15.8084 H   0  0  0  0  0  0  0  0  0  0  0  0
   10.1055   -1.4469   14.3215 H   0  0  0  0  0  0  0  0  0  0  0  0
   10.7465    0.0515   14.5681 H   0  0  0  0  0  0  0  0  0  0  0  0
   10.9876   -3.4457   15.3973 H   0  0  0  0  0  0  0  0  0  0  0  0
   12.9353   -4.4255   16.5165 H   0  0  0  0  0  0  0  0  0  0  0  0
   16.8569   -2.1733   16.0270 H   0  0  0  0  0  0  0  0  0  0  0  0
   16.9510   -1.6155   17.7425 H   0  0  0  0  0  0  0  0  0  0  0  0
   17.6818   -3.1475   17.2622 H   0  0  0  0  0  0  0  0  0  0  0  0
  1  2  1  0
  2  3  1  0
  3  4  2  0
  4  5  1  0
  5  6  1  0
  5  7  2  0
  7  8  1  0
  8  9  2  0
  9 10  1  0
 10 11  1  0
 10 12  2  0
 10 13  2  0
  9  3  1  0
  1 14  1  0
  1 15  1  0
  1 16  1  0
  2 17  1  0
  4 18  1  0
  6 19  1  0
  6 20  1  0
  7 21  1  0
  8 22  1  0
 11 23  1  0
 11 24  1  0
 11 25  1  0
M  END
>  <Energy>  (762) 
47.629174556141123

>  <compound_id>  (762) 
2051

>  <target_id>  (762) 
1

>  <reference_id>  (762) 
6

>  <inspiration_ids>  (762) 
[36, 6]

>  <energy_score>  (762) 
-32.446338394274875

>  <distance_score>  (762) 
1.8045725484965986

>  <path>  (762) 
/opt/xchem-fragalysis-2/maxwin/BulkDock/SCRATCH/505732/C2051-P6/C2051-P6.minimised.mol

>  <scratch_subdir>  (762) 
/opt/xchem-fragalysis-2/maxwin/BulkDock/SCRATCH/505732/C2051-P6

>  <fragmenstein_runtime>  (762) 
0.7599096298217773

>  <fragmenstein_outcome>  (762) 
too moved

>  <fragmenstein_mode>  (762) 
expansion

>  <fragmenstein_error>  (762) 


$$$$
C2052-P36
     RDKit          3D

 45 45  0  0  0  0  0  0  0  0999 V2000
   16.2890    0.9258   16.9495 C   0  0  0  0  0  0  0  0  0  0  0  0
   16.0020    0.2905   15.6028 C   0  0  0  0  0  0  0  0  0  0  0  0
   14.6176    0.5542   15.0096 C   0  0  0  0  0  0  0  0  0  0  0  0
   13.3817    0.5029   15.9043 C   0  0  0  0  0  0  0  0  0  0  0  0
   12.9820   -0.8096   16.5613 C   0  0  0  0  0  0  0  0  0  0  0  0
   14.0411   -1.5276   17.3745 C   0  0  0  0  0  0  0  0  0  0  0  0
   13.5841   -2.9400   17.7018 C   0  0  0  0  0  0  0  0  0  0  0  0
   14.6916   -3.8382   18.3238 C   0  0  0  0  0  0  0  0  0  0  0  0
   16.2201   -3.7269   17.9706 C   0  0  0  0  0  0  0  0  0  0  0  0
   16.8575   -2.5035   18.6670 C   0  0  0  0  0  0  0  0  0  0  0  0
   16.9038   -4.9681   18.6126 C   0  0  0  0  0  0  0  0  0  0  0  0
   16.5585   -3.7388   16.4639 C   0  0  0  0  0  0  0  0  0  0  0  0
   17.9554   -3.5459   16.2513 O   0  0  0  0  0  0  0  0  0  0  0  0
   12.8910   -3.4907   16.4504 C   0  0  0  0  0  0  0  0  0  0  0  0
   13.8774   -4.2349   15.8057 O   0  0  0  0  0  0  0  0  0  0  0  0
   11.9181   -4.4551   16.8023 O   0  0  0  0  0  0  0  0  0  0  0  0
   12.2093   -2.0225   15.5418 S   0  0  0  0  0  0  0  0  0  0  0  0
   12.7345   -1.9317   14.1999 O   0  0  0  0  0  0  0  0  0  0  0  0
   10.7792   -1.9470   15.7912 O   0  0  0  0  0  0  0  0  0  0  0  0
   16.2172    2.0163   16.8745 H   0  0  0  0  0  0  0  0  0  0  0  0
   17.3083    0.6853   17.2688 H   0  0  0  0  0  0  0  0  0  0  0  0
   15.6073    0.6089   17.7368 H   0  0  0  0  0  0  0  0  0  0  0  0
   16.7367    0.6913   14.8903 H   0  0  0  0  0  0  0  0  0  0  0  0
   16.2275   -0.7755   15.6224 H   0  0  0  0  0  0  0  0  0  0  0  0
   14.6455    1.5664   14.5820 H   0  0  0  0  0  0  0  0  0  0  0  0
   14.4838   -0.1101   14.1492 H   0  0  0  0  0  0  0  0  0  0  0  0
   12.5300    0.8546   15.3062 H   0  0  0  0  0  0  0  0  0  0  0  0
   13.5076    1.2536   16.6954 H   0  0  0  0  0  0  0  0  0  0  0  0
   12.1821   -0.5563   17.2423 H   0  0  0  0  0  0  0  0  0  0  0  0
   14.9374   -1.5995   16.7886 H   0  0  0  0  0  0  0  0  0  0  0  0
   14.2661   -0.9797   18.2942 H   0  0  0  0  0  0  0  0  0  0  0  0
   12.8133   -2.9199   18.4652 H   0  0  0  0  0  0  0  0  0  0  0  0
   14.6212   -3.6773   19.4111 H   0  0  0  0  0  0  0  0  0  0  0  0
   14.3753   -4.8798   18.2026 H   0  0  0  0  0  0  0  0  0  0  0  0
   16.5557   -2.4412   19.7186 H   0  0  0  0  0  0  0  0  0  0  0  0
   16.5865   -1.5652   18.1872 H   0  0  0  0  0  0  0  0  0  0  0  0
   17.9525   -2.5565   18.6521 H   0  0  0  0  0  0  0  0  0  0  0  0
   16.5360   -5.8978   18.1657 H   0  0  0  0  0  0  0  0  0  0  0  0
   16.7053   -5.0158   19.6898 H   0  0  0  0  0  0  0  0  0  0  0  0
   17.9914   -4.9479   18.4798 H   0  0  0  0  0  0  0  0  0  0  0  0
   16.0436   -2.9702   15.8937 H   0  0  0  0  0  0  0  0  0  0  0  0
   16.3019   -4.7102   16.0272 H   0  0  0  0  0  0  0  0  0  0  0  0
   18.0943   -3.5910   15.2887 H   0  0  0  0  0  0  0  0  0  0  0  0
   13.6002   -5.1562   15.9690 H   0  0  0  0  0  0  0  0  0  0  0  0
   11.1984   -4.4063   16.1404 H   0  0  0  0  0  0  0  0  0  0  0  0
  1  2  1  0
  2  3  1  0
  3  4  1  0
  4  5  1  0
  5  6  1  0
  6  7  1  0
  7  8  1  0
  8  9  1  0
  9 10  1  0
  9 11  1  0
  9 12  1  0
 12 13  1  0
  7 14  1  0
 14 15  1  0
 14 16  1  0
 14 17  1  0
 17 18  2  0
 17 19  2  0
 17  5  1  0
  1 20  1  0
  1 21  1  0
  1 22  1  0
  2 23  1  0
  2 24  1  0
  3 25  1  0
  3 26  1  0
  4 27  1  0
  4 28  1  0
  5 29  1  0
  6 30  1  0
  6 31  1  0
  7 32  1  0
  8 33  1  0
  8 34  1  0
 10 35  1  0
 10 36  1  0
 10 37  1  0
 11 38  1  0
 11 39  1  0
 11 40  1  0
 12 41  1  0
 12 42  1  0
 13 43  1  0
 15 44  1  0
 16 45  1  0
M  END
>  <Energy>  (763) 
122.19872284067662

>  <compound_id>  (763) 
2052

>  <target_id>  (763) 
1

>  <reference_id>  (763) 
36

>  <inspiration_ids>  (763) 
[36, 8]

>  <energy_score>  (763) 
-43.09880010455552

>  <distance_score>  (763) 
1.6258832402299572

>  <path>  (763) 
/opt/xchem-fragalysis-2/maxwin/BulkDock/SCRATCH/505732/C2052-P36/C2052-P36.minimised.mol

>  <scratch_subdir>  (763) 
/opt/xchem-fragalysis-2/maxwin/BulkDock/SCRATCH/505732/C2052-P36

>  <fragmenstein_runtime>  (763) 
15.039586782455444

>  <fragmenstein_outcome>  (763) 
too moved

>  <fragmenstein_mode>  (763) 
expansion

>  <fragmenstein_error>  (763) 


$$$$
C2052-P8
     RDKit          3D

 45 45  0  0  0  0  0  0  0  0999 V2000
   16.8024    0.8389   17.2352 C   0  0  0  0  0  0  0  0  0  0  0  0
   16.0316    0.9618   15.9259 C   0  0  0  0  0  0  0  0  0  0  0  0
   14.6443    1.5919   16.1018 C   0  0  0  0  0  0  0  0  0  0  0  0
   13.5053    0.8203   15.4261 C   0  0  0  0  0  0  0  0  0  0  0  0
   13.0523   -0.3568   16.2718 C   0  0  0  0  0  0  0  0  0  0  0  0
   14.1500   -1.3848   16.4887 C   0  0  0  0  0  0  0  0  0  0  0  0
   13.5340   -2.6098   17.1180 C   0  0  0  0  0  0  0  0  0  0  0  0
   14.5445   -3.7697   17.3244 C   0  0  0  0  0  0  0  0  0  0  0  0
   15.9110   -3.5075   18.0298 C   0  0  0  0  0  0  0  0  0  0  0  0
   15.7357   -2.6616   19.3052 C   0  0  0  0  0  0  0  0  0  0  0  0
   16.4847   -4.8729   18.4913 C   0  0  0  0  0  0  0  0  0  0  0  0
   16.9433   -2.8891   17.0538 C   0  0  0  0  0  0  0  0  0  0  0  0
   18.1926   -2.6831   17.7045 O   0  0  0  0  0  0  0  0  0  0  0  0
   12.3364   -2.9124   16.1929 C   0  0  0  0  0  0  0  0  0  0  0  0
   12.8038   -3.6933   15.1623 O   0  0  0  0  0  0  0  0  0  0  0  0
   11.4394   -3.8263   16.7509 O   0  0  0  0  0  0  0  0  0  0  0  0
   11.6991   -1.2746   15.5940 S   0  0  0  0  0  0  0  0  0  0  0  0
   11.8024   -1.1884   14.1540 O   0  0  0  0  0  0  0  0  0  0  0  0
   10.4818   -0.8850   16.2867 O   0  0  0  0  0  0  0  0  0  0  0  0
   17.0334    1.8352   17.6282 H   0  0  0  0  0  0  0  0  0  0  0  0
   17.7532    0.3236   17.0675 H   0  0  0  0  0  0  0  0  0  0  0  0
   16.2518    0.3067   18.0118 H   0  0  0  0  0  0  0  0  0  0  0  0
   16.6165    1.6118   15.2613 H   0  0  0  0  0  0  0  0  0  0  0  0
   16.0022    0.0023   15.4073 H   0  0  0  0  0  0  0  0  0  0  0  0
   14.4103    1.7453   17.1625 H   0  0  0  0  0  0  0  0  0  0  0  0
   14.6765    2.5945   15.6555 H   0  0  0  0  0  0  0  0  0  0  0  0
   13.8109    0.5032   14.4220 H   0  0  0  0  0  0  0  0  0  0  0  0
   12.6542    1.4994   15.2904 H   0  0  0  0  0  0  0  0  0  0  0  0
   12.7273    0.0042   17.2478 H   0  0  0  0  0  0  0  0  0  0  0  0
   14.6287   -1.6536   15.5395 H   0  0  0  0  0  0  0  0  0  0  0  0
   14.8795   -0.9711   17.1693 H   0  0  0  0  0  0  0  0  0  0  0  0
   13.1583   -2.3622   18.1048 H   0  0  0  0  0  0  0  0  0  0  0  0
   13.9949   -4.5157   17.9090 H   0  0  0  0  0  0  0  0  0  0  0  0
   14.7860   -4.2402   16.3653 H   0  0  0  0  0  0  0  0  0  0  0  0
   14.9909   -3.1131   19.9711 H   0  0  0  0  0  0  0  0  0  0  0  0
   15.4085   -1.6423   19.0947 H   0  0  0  0  0  0  0  0  0  0  0  0
   16.6727   -2.5858   19.8686 H   0  0  0  0  0  0  0  0  0  0  0  0
   16.6953   -5.5222   17.6354 H   0  0  0  0  0  0  0  0  0  0  0  0
   15.7851   -5.3951   19.1536 H   0  0  0  0  0  0  0  0  0  0  0  0
   17.4218   -4.7520   19.0467 H   0  0  0  0  0  0  0  0  0  0  0  0
   16.6355   -1.9283   16.6568 H   0  0  0  0  0  0  0  0  0  0  0  0
   17.1135   -3.5586   16.2026 H   0  0  0  0  0  0  0  0  0  0  0  0
   18.8146   -2.3508   17.0345 H   0  0  0  0  0  0  0  0  0  0  0  0
   12.9492   -4.5440   15.6147 H   0  0  0  0  0  0  0  0  0  0  0  0
   10.8464   -4.0801   16.0133 H   0  0  0  0  0  0  0  0  0  0  0  0
  1  2  1  0
  2  3  1  0
  3  4  1  0
  4  5  1  0
  5  6  1  0
  6  7  1  0
  7  8  1  0
  8  9  1  0
  9 10  1  0
  9 11  1  0
  9 12  1  0
 12 13  1  0
  7 14  1  0
 14 15  1  0
 14 16  1  0
 14 17  1  0
 17 18  2  0
 17 19  2  0
 17  5  1  0
  1 20  1  0
  1 21  1  0
  1 22  1  0
  2 23  1  0
  2 24  1  0
  3 25  1  0
  3 26  1  0
  4 27  1  0
  4 28  1  0
  5 29  1  0
  6 30  1  0
  6 31  1  0
  7 32  1  0
  8 33  1  0
  8 34  1  0
 10 35  1  0
 10 36  1  0
 10 37  1  0
 11 38  1  0
 11 39  1  0
 11 40  1  0
 12 41  1  0
 12 42  1  0
 13 43  1  0
 15 44  1  0
 16 45  1  0
M  END
>  <Energy>  (764) 
122.14173197799956

>  <compound_id>  (764) 
2052

>  <target_id>  (764) 
1

>  <reference_id>  (764) 
8

>  <inspiration_ids>  (764) 
[36, 8]

>  <energy_score>  (764) 
-43.155790967234225

>  <distance_score>  (764) 
1.5782880204553908

>  <path>  (764) 
/opt/xchem-fragalysis-2/maxwin/BulkDock/SCRATCH/505732/C2052-P8/C2052-P8.minimised.mol

>  <scratch_subdir>  (764) 
/opt/xchem-fragalysis-2/maxwin/BulkDock/SCRATCH/505732/C2052-P8

>  <fragmenstein_runtime>  (764) 
15.23143196105957

>  <fragmenstein_outcome>  (764) 
too moved

>  <fragmenstein_mode>  (764) 
expansion

>  <fragmenstein_error>  (764) 


$$$$
C2054-P36
     RDKit          3D

 52 55  0  0  0  0  0  0  0  0999 V2000
   14.4126   -3.8103   21.2979 C   0  0  0  0  0  0  0  0  0  0  0  0
   13.9455   -4.1296   19.9566 N   0  0  0  0  0  0  0  0  0  0  0  0
   14.2990   -2.9726   19.1618 O   0  0  0  0  0  0  0  0  0  0  0  0
   14.8671   -3.4309   17.9179 N   0  0  0  0  0  0  0  0  0  0  0  0
   16.2632   -3.1041   17.7407 N   0  0  0  0  0  0  0  0  0  0  0  0
   17.1028   -4.0940   18.4100 C   0  0  0  0  0  0  0  0  0  0  0  0
   16.4451   -3.1451   16.2907 C   0  0  0  0  0  0  0  0  0  0  0  0
   17.5683   -1.8340   15.7182 S   0  0  0  0  0  0  0  0  0  0  0  0
   17.2586   -1.8561   14.0095 C   0  0  0  0  0  0  0  0  0  0  0  0
   17.8301   -2.7756   13.2046 C   0  0  0  0  0  0  0  0  0  0  0  0
   17.5108   -2.7835   11.7812 C   0  0  0  0  0  0  0  0  0  0  0  0
   16.5983   -1.9429   11.2593 C   0  0  0  0  0  0  0  0  0  0  0  0
   16.0331   -0.9406   12.0805 C   0  0  0  0  0  0  0  0  0  0  0  0
   15.2270    0.0623   11.8091 N   0  0  0  0  0  0  0  0  0  0  0  0
   15.1155    0.8227   12.9467 N   0  0  0  0  0  0  0  0  0  0  0  0
   15.8446    0.2526   13.8824 C   0  0  0  0  0  0  0  0  0  0  0  0
   16.4123   -0.9036   13.4167 N   0  0  0  0  0  0  0  0  0  0  0  0
   15.1118   -3.0080   15.6996 N   0  0  0  0  0  0  0  0  0  0  0  0
   14.1763   -2.7465   16.8053 C   0  0  0  0  0  0  0  0  0  0  0  0
   12.8226   -3.4573   16.5405 C   0  0  0  0  0  0  0  0  0  0  0  0
   11.9879   -2.8644   15.3998 C   0  0  0  0  0  0  0  0  0  0  0  0
   11.7726   -1.3689   15.5360 C   0  0  0  0  0  0  0  0  0  0  0  0
   13.0928   -0.6434   15.7328 C   0  0  0  0  0  0  0  0  0  0  0  0
   13.8891   -1.1795   16.9424 C   0  0  0  0  0  0  0  0  0  0  0  0
   15.0509   -0.2833   17.0997 N   0  0  0  0  0  0  0  0  0  0  0  0
   15.2868    0.1066   18.4802 C   0  0  0  0  0  0  0  0  0  0  0  0
   13.8803   -2.9499   21.7078 H   0  0  0  0  0  0  0  0  0  0  0  0
   14.2317   -4.6627   21.9593 H   0  0  0  0  0  0  0  0  0  0  0  0
   15.4854   -3.5938   21.3122 H   0  0  0  0  0  0  0  0  0  0  0  0
   14.5785   -4.8080   19.5425 H   0  0  0  0  0  0  0  0  0  0  0  0
   18.1615   -3.9075   18.1975 H   0  0  0  0  0  0  0  0  0  0  0  0
   16.8683   -5.1219   18.1072 H   0  0  0  0  0  0  0  0  0  0  0  0
   16.9904   -4.0243   19.4965 H   0  0  0  0  0  0  0  0  0  0  0  0
   16.8654   -4.1038   15.9572 H   0  0  0  0  0  0  0  0  0  0  0  0
   18.5066   -3.5391   13.5742 H   0  0  0  0  0  0  0  0  0  0  0  0
   17.9909   -3.5298   11.1555 H   0  0  0  0  0  0  0  0  0  0  0  0
   16.3277   -1.9702   10.2116 H   0  0  0  0  0  0  0  0  0  0  0  0
   15.9924    0.6366   14.8793 H   0  0  0  0  0  0  0  0  0  0  0  0
   14.8971   -3.9475   15.3820 H   0  0  0  0  0  0  0  0  0  0  0  0
   12.9781   -4.5266   16.3490 H   0  0  0  0  0  0  0  0  0  0  0  0
   12.2283   -3.4122   17.4544 H   0  0  0  0  0  0  0  0  0  0  0  0
   11.0192   -3.3729   15.3531 H   0  0  0  0  0  0  0  0  0  0  0  0
   12.4752   -3.0456   14.4398 H   0  0  0  0  0  0  0  0  0  0  0  0
   11.2729   -0.9864   14.6387 H   0  0  0  0  0  0  0  0  0  0  0  0
   11.1076   -1.1565   16.3746 H   0  0  0  0  0  0  0  0  0  0  0  0
   13.6722   -0.7540   14.8141 H   0  0  0  0  0  0  0  0  0  0  0  0
   12.8878    0.4276   15.8580 H   0  0  0  0  0  0  0  0  0  0  0  0
   13.2410   -1.0325   17.7991 H   0  0  0  0  0  0  0  0  0  0  0  0
   15.8758   -0.7952   16.7815 H   0  0  0  0  0  0  0  0  0  0  0  0
   16.1459    0.7840   18.5187 H   0  0  0  0  0  0  0  0  0  0  0  0
   15.5115   -0.7413   19.1300 H   0  0  0  0  0  0  0  0  0  0  0  0
   14.4290    0.6510   18.8883 H   0  0  0  0  0  0  0  0  0  0  0  0
  1  2  1  0
  2  3  1  0
  3  4  1  0
  4  5  1  0
  5  6  1  0
  5  7  1  0
  7  8  1  0
  8  9  1  0
  9 10  2  0
 10 11  1  0
 11 12  2  0
 12 13  1  0
 13 14  2  0
 14 15  1  0
 15 16  2  0
 16 17  1  0
  7 18  1  0
 18 19  1  0
 19 20  1  0
 20 21  1  0
 21 22  1  0
 22 23  1  0
 23 24  1  0
 24 25  1  0
 25 26  1  0
 19  4  1  0
 17  9  1  0
 24 19  1  0
 17 13  1  0
  1 27  1  0
  1 28  1  0
  1 29  1  0
  2 30  1  0
  6 31  1  0
  6 32  1  0
  6 33  1  0
  7 34  1  0
 10 35  1  0
 11 36  1  0
 12 37  1  0
 16 38  1  0
 18 39  1  0
 20 40  1  0
 20 41  1  0
 21 42  1  0
 21 43  1  0
 22 44  1  0
 22 45  1  0
 23 46  1  0
 23 47  1  0
 24 48  1  0
 25 49  1  0
 26 50  1  0
 26 51  1  0
 26 52  1  0
M  END
>  <Energy>  (765) 
21.903488787389104

>  <compound_id>  (765) 
2054

>  <target_id>  (765) 
1

>  <reference_id>  (765) 
36

>  <inspiration_ids>  (765) 
[36, 12]

>  <energy_score>  (765) 
-113.5937158393775

>  <distance_score>  (765) 
1.275460762884001

>  <path>  (765) 
/opt/xchem-fragalysis-2/maxwin/BulkDock/SCRATCH/505732/C2054-P36/C2054-P36.minimised.mol

>  <scratch_subdir>  (765) 
/opt/xchem-fragalysis-2/maxwin/BulkDock/SCRATCH/505732/C2054-P36

>  <fragmenstein_runtime>  (765) 
1.9042561054229736

>  <fragmenstein_outcome>  (765) 
too moved

>  <fragmenstein_mode>  (765) 
expansion

>  <fragmenstein_error>  (765) 


$$$$
C2054-P12
     RDKit          3D

 52 55  0  0  0  0  0  0  0  0999 V2000
   13.8018   -4.2077   21.0071 C   0  0  0  0  0  0  0  0  0  0  0  0
   14.2967   -4.7510   19.7499 N   0  0  0  0  0  0  0  0  0  0  0  0
   13.6759   -3.9374   18.7274 O   0  0  0  0  0  0  0  0  0  0  0  0
   14.5540   -2.9067   18.1765 N   0  0  0  0  0  0  0  0  0  0  0  0
   15.9393   -3.3511   17.9537 N   0  0  0  0  0  0  0  0  0  0  0  0
   16.8520   -2.7026   18.8935 C   0  0  0  0  0  0  0  0  0  0  0  0
   16.2520   -3.1656   16.5371 C   0  0  0  0  0  0  0  0  0  0  0  0
   17.3833   -1.8313   16.0228 S   0  0  0  0  0  0  0  0  0  0  0  0
   17.2862   -1.9367   14.2908 C   0  0  0  0  0  0  0  0  0  0  0  0
   17.9420   -2.9002   13.6114 C   0  0  0  0  0  0  0  0  0  0  0  0
   17.8274   -2.9605   12.1593 C   0  0  0  0  0  0  0  0  0  0  0  0
   17.0083   -2.1343   11.4815 C   0  0  0  0  0  0  0  0  0  0  0  0
   16.3527   -1.0908   12.1735 C   0  0  0  0  0  0  0  0  0  0  0  0
   15.6135   -0.0886   11.7512 N   0  0  0  0  0  0  0  0  0  0  0  0
   15.3754    0.7308   12.8263 N   0  0  0  0  0  0  0  0  0  0  0  0
   15.9657    0.1968   13.8741 C   0  0  0  0  0  0  0  0  0  0  0  0
   16.5516   -0.9968   13.5457 N   0  0  0  0  0  0  0  0  0  0  0  0
   14.9741   -3.0374   15.8648 N   0  0  0  0  0  0  0  0  0  0  0  0
   13.9841   -2.5601   16.8376 C   0  0  0  0  0  0  0  0  0  0  0  0
   12.6255   -3.2497   16.4813 C   0  0  0  0  0  0  0  0  0  0  0  0
   11.9156   -2.7367   15.2250 C   0  0  0  0  0  0  0  0  0  0  0  0
   11.7292   -1.2315   15.2473 C   0  0  0  0  0  0  0  0  0  0  0  0
   13.0650   -0.5415   15.4679 C   0  0  0  0  0  0  0  0  0  0  0  0
   13.7229   -0.9875   16.7846 C   0  0  0  0  0  0  0  0  0  0  0  0
   14.8926   -0.1199   17.0140 N   0  0  0  0  0  0  0  0  0  0  0  0
   14.9518    0.3897   18.3740 C   0  0  0  0  0  0  0  0  0  0  0  0
   12.7233   -4.3650   21.0993 H   0  0  0  0  0  0  0  0  0  0  0  0
   14.2866   -4.7221   21.8420 H   0  0  0  0  0  0  0  0  0  0  0  0
   14.0171   -3.1384   21.0998 H   0  0  0  0  0  0  0  0  0  0  0  0
   15.2631   -4.4702   19.6028 H   0  0  0  0  0  0  0  0  0  0  0  0
   17.8676   -3.0940   18.7651 H   0  0  0  0  0  0  0  0  0  0  0  0
   16.5766   -2.9174   19.9320 H   0  0  0  0  0  0  0  0  0  0  0  0
   16.8834   -1.6139   18.7992 H   0  0  0  0  0  0  0  0  0  0  0  0
   16.7355   -4.0895   16.1981 H   0  0  0  0  0  0  0  0  0  0  0  0
   18.5478   -3.6561   14.1006 H   0  0  0  0  0  0  0  0  0  0  0  0
   18.3834   -3.7343   11.6390 H   0  0  0  0  0  0  0  0  0  0  0  0
   16.8904   -2.2033   10.4079 H   0  0  0  0  0  0  0  0  0  0  0  0
   16.0016    0.6345   14.8586 H   0  0  0  0  0  0  0  0  0  0  0  0
   14.7176   -4.0009   15.6653 H   0  0  0  0  0  0  0  0  0  0  0  0
   12.7406   -4.3382   16.4033 H   0  0  0  0  0  0  0  0  0  0  0  0
   11.9459   -3.0842   17.3097 H   0  0  0  0  0  0  0  0  0  0  0  0
   10.9391   -3.2250   15.1332 H   0  0  0  0  0  0  0  0  0  0  0  0
   12.4791   -2.9991   14.3280 H   0  0  0  0  0  0  0  0  0  0  0  0
   11.2974   -0.8967   14.2983 H   0  0  0  0  0  0  0  0  0  0  0  0
   11.0235   -0.9480   16.0351 H   0  0  0  0  0  0  0  0  0  0  0  0
   13.7093   -0.7724   14.6173 H   0  0  0  0  0  0  0  0  0  0  0  0
   12.9028    0.5438   15.4708 H   0  0  0  0  0  0  0  0  0  0  0  0
   12.9866   -0.7553   17.5539 H   0  0  0  0  0  0  0  0  0  0  0  0
   15.7295   -0.6784   16.8427 H   0  0  0  0  0  0  0  0  0  0  0  0
   14.1401    1.1028   18.5508 H   0  0  0  0  0  0  0  0  0  0  0  0
   15.8924    0.9301   18.5195 H   0  0  0  0  0  0  0  0  0  0  0  0
   14.8942   -0.3956   19.1318 H   0  0  0  0  0  0  0  0  0  0  0  0
  1  2  1  0
  2  3  1  0
  3  4  1  0
  4  5  1  0
  5  6  1  0
  5  7  1  0
  7  8  1  0
  8  9  1  0
  9 10  2  0
 10 11  1  0
 11 12  2  0
 12 13  1  0
 13 14  2  0
 14 15  1  0
 15 16  2  0
 16 17  1  0
  7 18  1  0
 18 19  1  0
 19 20  1  0
 20 21  1  0
 21 22  1  0
 22 23  1  0
 23 24  1  0
 24 25  1  0
 25 26  1  0
 19  4  1  0
 17  9  1  0
 24 19  1  0
 17 13  1  0
  1 27  1  0
  1 28  1  0
  1 29  1  0
  2 30  1  0
  6 31  1  0
  6 32  1  0
  6 33  1  0
  7 34  1  0
 10 35  1  0
 11 36  1  0
 12 37  1  0
 16 38  1  0
 18 39  1  0
 20 40  1  0
 20 41  1  0
 21 42  1  0
 21 43  1  0
 22 44  1  0
 22 45  1  0
 23 46  1  0
 23 47  1  0
 24 48  1  0
 25 49  1  0
 26 50  1  0
 26 51  1  0
 26 52  1  0
M  END
>  <Energy>  (766) 
36.624333480922402

>  <compound_id>  (766) 
2054

>  <target_id>  (766) 
1

>  <reference_id>  (766) 
12

>  <inspiration_ids>  (766) 
[36, 12]

>  <energy_score>  (766) 
-98.87287114584473

>  <distance_score>  (766) 
1.2403704490726792

>  <path>  (766) 
/opt/xchem-fragalysis-2/maxwin/BulkDock/SCRATCH/505732/C2054-P12/C2054-P12.minimised.mol

>  <scratch_subdir>  (766) 
/opt/xchem-fragalysis-2/maxwin/BulkDock/SCRATCH/505732/C2054-P12

>  <fragmenstein_runtime>  (766) 
2.852325677871704

>  <fragmenstein_outcome>  (766) 
too moved

>  <fragmenstein_mode>  (766) 
expansion

>  <fragmenstein_error>  (766) 


$$$$
C2057-P36
     RDKit          3D

 58 60  0  0  0  0  0  0  0  0999 V2000
   15.9839    0.0409   18.6164 C   0  0  0  0  0  0  0  0  0  0  0  0
   15.4269   -1.1434   17.9964 N   0  0  0  0  0  0  0  0  0  0  0  0
   14.2218   -1.0900   17.2959 C   0  0  0  0  0  0  0  0  0  0  0  0
   13.6056    0.1117   17.0116 C   0  0  0  0  0  0  0  0  0  0  0  0
   12.4655    0.1632   16.2233 C   0  0  0  0  0  0  0  0  0  0  0  0
   11.9112   -0.9544   15.6100 C   0  0  0  0  0  0  0  0  0  0  0  0
   10.7725   -0.8260   14.8196 N   0  0  0  0  0  0  0  0  0  0  0  0
   10.3644    0.4940   14.3211 C   0  0  0  0  0  0  0  0  0  0  0  0
   11.4106    1.3263   13.7395 N   0  0  0  0  0  0  0  0  0  0  0  0
   11.4978    2.5320   13.7039 C   0  0  0  0  0  0  0  0  0  0  0  0
   12.6542    3.4594   13.1633 N   0  0  0  0  0  0  0  0  0  0  0  0
   13.9672    3.1267   12.6496 C   0  0  0  0  0  0  0  0  0  0  0  0
   15.0104    3.3340   13.7533 C   0  0  0  0  0  0  0  0  0  0  0  0
   15.0673    2.1556   14.7181 C   0  0  0  0  0  0  0  0  0  0  0  0
   15.2285    0.8385   13.9670 C   0  0  0  0  0  0  0  0  0  0  0  0
   14.1737    0.6190   12.9826 N   0  0  0  0  0  0  0  0  0  0  0  0
   14.0918    1.7267   12.0238 C   0  0  0  0  0  0  0  0  0  0  0  0
   10.4101    3.4347   14.2327 C   0  0  0  0  0  0  0  0  0  0  0  0
    9.7635    4.2863   13.3282 C   0  0  0  0  0  0  0  0  0  0  0  0
    8.7828    5.1673   13.7819 C   0  0  0  0  0  0  0  0  0  0  0  0
    8.4708    5.2183   15.1404 C   0  0  0  0  0  0  0  0  0  0  0  0
    9.1525    4.4067   16.0484 C   0  0  0  0  0  0  0  0  0  0  0  0
   10.1337    3.5224   15.5987 C   0  0  0  0  0  0  0  0  0  0  0  0
   12.4731   -2.1917   15.9409 C   0  0  0  0  0  0  0  0  0  0  0  0
   13.6207   -2.2448   16.7687 C   0  0  0  0  0  0  0  0  0  0  0  0
   14.3034   -3.8036   17.2661 S   0  0  0  0  0  0  0  0  0  0  0  0
   15.8156   -3.9316   16.3448 C   0  0  0  0  0  0  0  0  0  0  0  0
   14.6472   -3.6986   18.6764 O   0  0  0  0  0  0  0  0  0  0  0  0
   13.4108   -4.8550   16.8312 O   0  0  0  0  0  0  0  0  0  0  0  0
   15.3018    0.4616   19.3628 H   0  0  0  0  0  0  0  0  0  0  0  0
   16.9121   -0.2279   19.1309 H   0  0  0  0  0  0  0  0  0  0  0  0
   16.2372    0.8024   17.8715 H   0  0  0  0  0  0  0  0  0  0  0  0
   15.4076   -1.9223   18.6729 H   0  0  0  0  0  0  0  0  0  0  0  0
   13.9833    1.0506   17.4042 H   0  0  0  0  0  0  0  0  0  0  0  0
   12.0423    1.1490   16.0879 H   0  0  0  0  0  0  0  0  0  0  0  0
   10.7000   -1.5272   14.0759 H   0  0  0  0  0  0  0  0  0  0  0  0
    9.8466    0.9875   15.1480 H   0  0  0  0  0  0  0  0  0  0  0  0
    9.6035    0.3351   13.5555 H   0  0  0  0  0  0  0  0  0  0  0  0
   12.4315    4.4304   13.3656 H   0  0  0  0  0  0  0  0  0  0  0  0
   14.1736    3.8571   11.8576 H   0  0  0  0  0  0  0  0  0  0  0  0
   14.8184    4.2603   14.3083 H   0  0  0  0  0  0  0  0  0  0  0  0
   15.9975    3.4468   13.2861 H   0  0  0  0  0  0  0  0  0  0  0  0
   14.1506    2.1606   15.3097 H   0  0  0  0  0  0  0  0  0  0  0  0
   15.9015    2.2884   15.4161 H   0  0  0  0  0  0  0  0  0  0  0  0
   15.2410    0.0010   14.6694 H   0  0  0  0  0  0  0  0  0  0  0  0
   16.2024    0.8179   13.4619 H   0  0  0  0  0  0  0  0  0  0  0  0
   13.2657    0.5787   13.4703 H   0  0  0  0  0  0  0  0  0  0  0  0
   13.2472    1.5431   11.3491 H   0  0  0  0  0  0  0  0  0  0  0  0
   14.9921    1.6976   11.3966 H   0  0  0  0  0  0  0  0  0  0  0  0
   10.0301    4.2748   12.2745 H   0  0  0  0  0  0  0  0  0  0  0  0
    8.2661    5.8215   13.0823 H   0  0  0  0  0  0  0  0  0  0  0  0
    7.7069    5.9082   15.4939 H   0  0  0  0  0  0  0  0  0  0  0  0
    8.9316    4.4765   17.1101 H   0  0  0  0  0  0  0  0  0  0  0  0
   10.6836    2.9268   16.3207 H   0  0  0  0  0  0  0  0  0  0  0  0
   12.0303   -3.1092   15.5603 H   0  0  0  0  0  0  0  0  0  0  0  0
   16.2276   -4.9294   16.5099 H   0  0  0  0  0  0  0  0  0  0  0  0
   16.5297   -3.1851   16.6926 H   0  0  0  0  0  0  0  0  0  0  0  0
   15.6055   -3.7894   15.2853 H   0  0  0  0  0  0  0  0  0  0  0  0
  1  2  1  0
  2  3  1  0
  3  4  2  0
  4  5  1  0
  5  6  2  0
  6  7  1  0
  7  8  1  0
  8  9  1  0
  9 10  2  3
 10 11  1  0
 11 12  1  0
 12 13  1  0
 13 14  1  0
 14 15  1  0
 15 16  1  0
 16 17  1  0
 10 18  1  0
 18 19  2  0
 19 20  1  0
 20 21  2  0
 21 22  1  0
 22 23  2  0
  6 24  1  0
 24 25  2  0
 25 26  1  0
 26 27  1  0
 26 28  2  0
 26 29  2  0
 25  3  1  0
 17 12  1  0
 23 18  1  0
  1 30  1  0
  1 31  1  0
  1 32  1  0
  2 33  1  0
  4 34  1  0
  5 35  1  0
  7 36  1  0
  8 37  1  0
  8 38  1  0
 11 39  1  0
 12 40  1  0
 13 41  1  0
 13 42  1  0
 14 43  1  0
 14 44  1  0
 15 45  1  0
 15 46  1  0
 16 47  1  0
 17 48  1  0
 17 49  1  0
 19 50  1  0
 20 51  1  0
 21 52  1  0
 22 53  1  0
 23 54  1  0
 24 55  1  0
 27 56  1  0
 27 57  1  0
 27 58  1  0
M  END
>  <Energy>  (767) 
68.566002623887158

>  <compound_id>  (767) 
2057

>  <target_id>  (767) 
1

>  <reference_id>  (767) 
36

>  <inspiration_ids>  (767) 
[36, 26]

>  <energy_score>  (767) 
-51.23538244569431

>  <distance_score>  (767) 
1.3834424035604598

>  <path>  (767) 
/opt/xchem-fragalysis-2/maxwin/BulkDock/SCRATCH/505732/C2057-P36/C2057-P36.minimised.mol

>  <scratch_subdir>  (767) 
/opt/xchem-fragalysis-2/maxwin/BulkDock/SCRATCH/505732/C2057-P36

>  <fragmenstein_runtime>  (767) 
7.0598955154418945

>  <fragmenstein_outcome>  (767) 
too moved

>  <fragmenstein_mode>  (767) 
expansion

>  <fragmenstein_error>  (767) 


$$$$
C2057-P26
     RDKit          3D

 58 60  0  0  0  0  0  0  0  0999 V2000
   15.9269    0.1664   18.7280 C   0  0  0  0  0  0  0  0  0  0  0  0
   15.3956   -0.9879   18.0344 N   0  0  0  0  0  0  0  0  0  0  0  0
   14.2045   -0.8994   17.3137 C   0  0  0  0  0  0  0  0  0  0  0  0
   13.6127    0.3149   17.0255 C   0  0  0  0  0  0  0  0  0  0  0  0
   12.4821    0.3846   16.2224 C   0  0  0  0  0  0  0  0  0  0  0  0
   11.9335   -0.7236   15.5824 C   0  0  0  0  0  0  0  0  0  0  0  0
   10.8249   -0.5937   14.7568 N   0  0  0  0  0  0  0  0  0  0  0  0
   10.4860    0.7099   14.1892 C   0  0  0  0  0  0  0  0  0  0  0  0
   11.5929    1.5438   13.7621 N   0  0  0  0  0  0  0  0  0  0  0  0
   11.6848    2.7451   13.7221 C   0  0  0  0  0  0  0  0  0  0  0  0
   12.9305    3.6634   13.4568 N   0  0  0  0  0  0  0  0  0  0  0  0
   14.3232    3.3291   13.2826 C   0  0  0  0  0  0  0  0  0  0  0  0
   14.8875    2.9164   14.6528 C   0  0  0  0  0  0  0  0  0  0  0  0
   15.8525    1.7411   14.5512 C   0  0  0  0  0  0  0  0  0  0  0  0
   15.2663    0.5492   13.7913 C   0  0  0  0  0  0  0  0  0  0  0  0
   14.3275    0.8808   12.7199 N   0  0  0  0  0  0  0  0  0  0  0  0
   14.5364    2.2392   12.2110 C   0  0  0  0  0  0  0  0  0  0  0  0
   10.5081    3.6337   14.0193 C   0  0  0  0  0  0  0  0  0  0  0  0
    9.9819    4.4136   12.9860 C   0  0  0  0  0  0  0  0  0  0  0  0
    8.9253    5.2845   13.2506 C   0  0  0  0  0  0  0  0  0  0  0  0
    8.4166    5.3899   14.5461 C   0  0  0  0  0  0  0  0  0  0  0  0
    8.9747    4.6424   15.5843 C   0  0  0  0  0  0  0  0  0  0  0  0
   10.0331    3.7720   15.3263 C   0  0  0  0  0  0  0  0  0  0  0  0
   12.4731   -1.9641   15.9085 C   0  0  0  0  0  0  0  0  0  0  0  0
   13.6004   -2.0348   16.7554 C   0  0  0  0  0  0  0  0  0  0  0  0
   14.2604   -3.6121   17.1873 S   0  0  0  0  0  0  0  0  0  0  0  0
   15.7761   -3.6967   16.2578 C   0  0  0  0  0  0  0  0  0  0  0  0
   14.5991   -3.5850   18.6022 O   0  0  0  0  0  0  0  0  0  0  0  0
   13.3366   -4.6066   16.6918 O   0  0  0  0  0  0  0  0  0  0  0  0
   15.2159    0.5534   19.4657 H   0  0  0  0  0  0  0  0  0  0  0  0
   16.8349   -0.1259   19.2654 H   0  0  0  0  0  0  0  0  0  0  0  0
   16.2081    0.9618   18.0307 H   0  0  0  0  0  0  0  0  0  0  0  0
   15.3615   -1.7959   18.6746 H   0  0  0  0  0  0  0  0  0  0  0  0
   13.9966    1.2470   17.4282 H   0  0  0  0  0  0  0  0  0  0  0  0
   12.0554    1.3732   16.1032 H   0  0  0  0  0  0  0  0  0  0  0  0
   10.7220   -1.3359   14.0583 H   0  0  0  0  0  0  0  0  0  0  0  0
    9.8527    0.5330   13.3216 H   0  0  0  0  0  0  0  0  0  0  0  0
    9.8661    1.2044   14.9405 H   0  0  0  0  0  0  0  0  0  0  0  0
   12.6319    4.6332   13.4135 H   0  0  0  0  0  0  0  0  0  0  0  0
   14.8439    4.2329   12.9437 H   0  0  0  0  0  0  0  0  0  0  0  0
   14.0837    2.6599   15.3494 H   0  0  0  0  0  0  0  0  0  0  0  0
   15.4024    3.7730   15.1055 H   0  0  0  0  0  0  0  0  0  0  0  0
   16.1747    1.4269   15.5495 H   0  0  0  0  0  0  0  0  0  0  0  0
   16.7568    2.0827   14.0303 H   0  0  0  0  0  0  0  0  0  0  0  0
   14.7772   -0.1411   14.4801 H   0  0  0  0  0  0  0  0  0  0  0  0
   16.0960   -0.0223   13.3579 H   0  0  0  0  0  0  0  0  0  0  0  0
   13.3750    0.8556   13.1197 H   0  0  0  0  0  0  0  0  0  0  0  0
   13.8571    2.4061   11.3666 H   0  0  0  0  0  0  0  0  0  0  0  0
   15.5525    2.3131   11.8028 H   0  0  0  0  0  0  0  0  0  0  0  0
   10.4004    4.3524   11.9845 H   0  0  0  0  0  0  0  0  0  0  0  0
    8.5002    5.8926   12.4545 H   0  0  0  0  0  0  0  0  0  0  0  0
    7.5917    6.0703   14.7498 H   0  0  0  0  0  0  0  0  0  0  0  0
    8.5940    4.7510   16.5966 H   0  0  0  0  0  0  0  0  0  0  0  0
   10.4888    3.2200   16.1443 H   0  0  0  0  0  0  0  0  0  0  0  0
   12.0324   -2.8700   15.4987 H   0  0  0  0  0  0  0  0  0  0  0  0
   15.5658   -3.4963   15.2073 H   0  0  0  0  0  0  0  0  0  0  0  0
   16.2011   -4.6943   16.3673 H   0  0  0  0  0  0  0  0  0  0  0  0
   16.4871   -2.9655   16.6435 H   0  0  0  0  0  0  0  0  0  0  0  0
  1  2  1  0
  2  3  1  0
  3  4  2  0
  4  5  1  0
  5  6  2  0
  6  7  1  0
  7  8  1  0
  8  9  1  0
  9 10  2  3
 10 11  1  0
 11 12  1  0
 12 13  1  0
 13 14  1  0
 14 15  1  0
 15 16  1  0
 16 17  1  0
 10 18  1  0
 18 19  2  0
 19 20  1  0
 20 21  2  0
 21 22  1  0
 22 23  2  0
  6 24  1  0
 24 25  2  0
 25 26  1  0
 26 27  1  0
 26 28  2  0
 26 29  2  0
 25  3  1  0
 17 12  1  0
 23 18  1  0
  1 30  1  0
  1 31  1  0
  1 32  1  0
  2 33  1  0
  4 34  1  0
  5 35  1  0
  7 36  1  0
  8 37  1  0
  8 38  1  0
 11 39  1  0
 12 40  1  0
 13 41  1  0
 13 42  1  0
 14 43  1  0
 14 44  1  0
 15 45  1  0
 15 46  1  0
 16 47  1  0
 17 48  1  0
 17 49  1  0
 19 50  1  0
 20 51  1  0
 21 52  1  0
 22 53  1  0
 23 54  1  0
 24 55  1  0
 27 56  1  0
 27 57  1  0
 27 58  1  0
M  END
>  <Energy>  (768) 
73.853518212165937

>  <compound_id>  (768) 
2057

>  <target_id>  (768) 
1

>  <reference_id>  (768) 
26

>  <inspiration_ids>  (768) 
[36, 26]

>  <energy_score>  (768) 
-45.94786685741889

>  <distance_score>  (768) 
1.444480091514478

>  <path>  (768) 
/opt/xchem-fragalysis-2/maxwin/BulkDock/SCRATCH/505732/C2057-P26/C2057-P26.minimised.mol

>  <scratch_subdir>  (768) 
/opt/xchem-fragalysis-2/maxwin/BulkDock/SCRATCH/505732/C2057-P26

>  <fragmenstein_runtime>  (768) 
5.883661270141602

>  <fragmenstein_outcome>  (768) 
too moved

>  <fragmenstein_mode>  (768) 
expansion

>  <fragmenstein_error>  (768) 


$$$$
C2058-P36
     RDKit          3D

 49 52  0  0  0  0  0  0  0  0999 V2000
   14.4191   -0.0300   17.4599 C   0  0  0  0  0  0  0  0  0  0  0  0
   13.4700   -0.9378   16.8018 N   0  0  0  0  0  0  0  0  0  0  0  0
   14.1129   -1.8008   15.8965 C   0  0  0  0  0  0  0  0  0  0  0  0
   14.0630   -1.4923   14.5310 C   0  0  0  0  0  0  0  0  0  0  0  0
   15.0260   -1.9961   13.6371 C   0  0  0  0  0  0  0  0  0  0  0  0
   16.1018   -2.7435   14.1024 C   0  0  0  0  0  0  0  0  0  0  0  0
   17.4023   -2.8282   13.4385 N   0  0  0  0  0  0  0  0  0  0  0  0
   17.5430   -3.2750   12.1415 N   0  0  0  0  0  0  0  0  0  0  0  0
   17.8523   -2.4736   11.1770 C   0  0  0  0  0  0  0  0  0  0  0  0
   17.9615   -2.9771    9.9139 N   0  0  0  0  0  0  0  0  0  0  0  0
   17.9707   -1.9483    9.0424 C   0  0  0  0  0  0  0  0  0  0  0  0
   17.6089   -1.9979    7.8766 O   0  0  0  0  0  0  0  0  0  0  0  0
   18.3154   -0.8004    9.7065 N   0  0  0  0  0  0  0  0  0  0  0  0
   18.1181   -0.9755   11.1244 C   0  0  0  0  0  0  0  0  0  0  0  0
   19.3164   -0.5416   11.9708 C   0  0  0  0  0  0  0  0  0  0  0  0
   18.7364   -0.0101   13.2908 C   0  0  0  0  0  0  0  0  0  0  0  0
   17.3474    0.3840   12.8967 C   0  0  0  0  0  0  0  0  0  0  0  0
   16.4365    1.1050   13.6474 C   0  0  0  0  0  0  0  0  0  0  0  0
   15.1840    1.3844   13.1025 C   0  0  0  0  0  0  0  0  0  0  0  0
   14.8519    0.9335   11.8206 C   0  0  0  0  0  0  0  0  0  0  0  0
   15.7707    0.1883   11.0716 C   0  0  0  0  0  0  0  0  0  0  0  0
   17.0080   -0.1061   11.6368 C   0  0  0  0  0  0  0  0  0  0  0  0
   15.9850   -3.2482   15.4068 C   0  0  0  0  0  0  0  0  0  0  0  0
   14.9743   -2.8239   16.2864 C   0  0  0  0  0  0  0  0  0  0  0  0
   14.8557   -3.6259   17.8710 S   0  0  0  0  0  0  0  0  0  0  0  0
   16.5280   -4.0117   18.2935 C   0  0  0  0  0  0  0  0  0  0  0  0
   14.4239   -2.6943   18.8933 O   0  0  0  0  0  0  0  0  0  0  0  0
   14.1717   -4.8912   17.6720 O   0  0  0  0  0  0  0  0  0  0  0  0
   15.2791   -0.5420   17.9009 H   0  0  0  0  0  0  0  0  0  0  0  0
   14.7887    0.7148   16.7462 H   0  0  0  0  0  0  0  0  0  0  0  0
   13.9010    0.5052   18.2608 H   0  0  0  0  0  0  0  0  0  0  0  0
   12.7347   -0.4108   16.3350 H   0  0  0  0  0  0  0  0  0  0  0  0
   13.3314   -0.7840   14.1500 H   0  0  0  0  0  0  0  0  0  0  0  0
   14.9823   -1.7204   12.5942 H   0  0  0  0  0  0  0  0  0  0  0  0
   17.9490   -3.4559   14.0343 H   0  0  0  0  0  0  0  0  0  0  0  0
   17.6327   -3.8993    9.6594 H   0  0  0  0  0  0  0  0  0  0  0  0
   18.1533    0.0850    9.2464 H   0  0  0  0  0  0  0  0  0  0  0  0
   20.0431   -1.3426   12.1461 H   0  0  0  0  0  0  0  0  0  0  0  0
   19.8581    0.2742   11.4711 H   0  0  0  0  0  0  0  0  0  0  0  0
   18.7295   -0.7708   14.0745 H   0  0  0  0  0  0  0  0  0  0  0  0
   19.3120    0.8517   13.6436 H   0  0  0  0  0  0  0  0  0  0  0  0
   16.6915    1.4587   14.6416 H   0  0  0  0  0  0  0  0  0  0  0  0
   14.4598    1.9561   13.6773 H   0  0  0  0  0  0  0  0  0  0  0  0
   13.8703    1.1536   11.4077 H   0  0  0  0  0  0  0  0  0  0  0  0
   15.4942   -0.1903   10.0919 H   0  0  0  0  0  0  0  0  0  0  0  0
   16.7265   -3.9718   15.7251 H   0  0  0  0  0  0  0  0  0  0  0  0
   16.9000   -4.8260   17.6706 H   0  0  0  0  0  0  0  0  0  0  0  0
   16.5382   -4.3432   19.3355 H   0  0  0  0  0  0  0  0  0  0  0  0
   17.1455   -3.1164   18.1983 H   0  0  0  0  0  0  0  0  0  0  0  0
  1  2  1  0
  2  3  1  0
  3  4  2  0
  4  5  1  0
  5  6  2  0
  6  7  1  0
  7  8  1  0
  8  9  2  3
  9 10  1  0
 10 11  1  0
 11 12  2  0
 11 13  1  0
 13 14  1  0
 14 15  1  0
 15 16  1  0
 16 17  1  0
 17 18  2  0
 18 19  1  0
 19 20  2  0
 20 21  1  0
 21 22  2  0
  6 23  1  0
 23 24  2  0
 24 25  1  0
 25 26  1  0
 25 27  2  0
 25 28  2  0
 24  3  1  0
 14  9  1  0
 22 17  1  0
 22 14  1  0
  1 29  1  0
  1 30  1  0
  1 31  1  0
  2 32  1  0
  4 33  1  0
  5 34  1  0
  7 35  1  0
 10 36  1  0
 13 37  1  0
 15 38  1  0
 15 39  1  0
 16 40  1  0
 16 41  1  0
 18 42  1  0
 19 43  1  0
 20 44  1  0
 21 45  1  0
 23 46  1  0
 26 47  1  0
 26 48  1  0
 26 49  1  0
M  END
>  <Energy>  (769) 
70.731203302275475

>  <compound_id>  (769) 
2058

>  <target_id>  (769) 
1

>  <reference_id>  (769) 
36

>  <inspiration_ids>  (769) 
[36, 29]

>  <energy_score>  (769) 
-16.11478961021706

>  <distance_score>  (769) 
2.369677499605298

>  <path>  (769) 
/opt/xchem-fragalysis-2/maxwin/BulkDock/SCRATCH/505732/C2058-P36/C2058-P36.minimised.mol

>  <scratch_subdir>  (769) 
/opt/xchem-fragalysis-2/maxwin/BulkDock/SCRATCH/505732/C2058-P36

>  <fragmenstein_runtime>  (769) 
4.6546900272369385

>  <fragmenstein_outcome>  (769) 
too moved

>  <fragmenstein_mode>  (769) 
expansion

>  <fragmenstein_error>  (769) 


$$$$
C2058-P29
     RDKit          3D

 49 52  0  0  0  0  0  0  0  0999 V2000
   15.7870   -0.0862   18.0908 C   0  0  0  0  0  0  0  0  0  0  0  0
   14.9543    0.2936   16.9718 N   0  0  0  0  0  0  0  0  0  0  0  0
   14.5313   -0.5159   15.9324 C   0  0  0  0  0  0  0  0  0  0  0  0
   14.2793    0.1662   14.7060 C   0  0  0  0  0  0  0  0  0  0  0  0
   14.2264   -0.5029   13.4689 C   0  0  0  0  0  0  0  0  0  0  0  0
   14.2473   -1.8732   13.4785 C   0  0  0  0  0  0  0  0  0  0  0  0
   15.2632   -2.6165   12.7126 N   0  0  0  0  0  0  0  0  0  0  0  0
   15.4524   -2.4049   11.3713 N   0  0  0  0  0  0  0  0  0  0  0  0
   16.5920   -2.0338   10.8838 C   0  0  0  0  0  0  0  0  0  0  0  0
   16.6565   -1.8622    9.5387 N   0  0  0  0  0  0  0  0  0  0  0  0
   17.8089   -1.2652    9.1851 C   0  0  0  0  0  0  0  0  0  0  0  0
   18.0521   -0.7836    8.0934 O   0  0  0  0  0  0  0  0  0  0  0  0
   18.6362   -1.2415   10.2757 N   0  0  0  0  0  0  0  0  0  0  0  0
   17.9272   -1.6273   11.4731 C   0  0  0  0  0  0  0  0  0  0  0  0
   18.6671   -2.6946   12.2710 C   0  0  0  0  0  0  0  0  0  0  0  0
   18.3582   -2.4216   13.7461 C   0  0  0  0  0  0  0  0  0  0  0  0
   17.9745   -0.9802   13.7318 C   0  0  0  0  0  0  0  0  0  0  0  0
   17.7562   -0.1651   14.8174 C   0  0  0  0  0  0  0  0  0  0  0  0
   17.3226    1.1428   14.5956 C   0  0  0  0  0  0  0  0  0  0  0  0
   17.0810    1.6130   13.3013 C   0  0  0  0  0  0  0  0  0  0  0  0
   17.3225    0.7919   12.2052 C   0  0  0  0  0  0  0  0  0  0  0  0
   17.7624   -0.5045   12.4415 C   0  0  0  0  0  0  0  0  0  0  0  0
   13.8380   -2.4098   14.6954 C   0  0  0  0  0  0  0  0  0  0  0  0
   14.2557   -1.8738   15.9154 C   0  0  0  0  0  0  0  0  0  0  0  0
   14.4263   -3.0778   17.2312 S   0  0  0  0  0  0  0  0  0  0  0  0
   16.0414   -3.7530   16.9312 C   0  0  0  0  0  0  0  0  0  0  0  0
   14.4714   -2.4403   18.5289 O   0  0  0  0  0  0  0  0  0  0  0  0
   13.4715   -4.1452   16.9971 O   0  0  0  0  0  0  0  0  0  0  0  0
   16.4293   -0.9407   17.8751 H   0  0  0  0  0  0  0  0  0  0  0  0
   16.4576    0.7482   18.3268 H   0  0  0  0  0  0  0  0  0  0  0  0
   15.1834   -0.2493   18.9864 H   0  0  0  0  0  0  0  0  0  0  0  0
   15.1043    1.2603   16.6947 H   0  0  0  0  0  0  0  0  0  0  0  0
   14.3303    1.2536   14.6725 H   0  0  0  0  0  0  0  0  0  0  0  0
   14.3871    0.0542   12.5524 H   0  0  0  0  0  0  0  0  0  0  0  0
   15.0542   -3.6097   12.8723 H   0  0  0  0  0  0  0  0  0  0  0  0
   15.8236   -1.8898    8.9778 H   0  0  0  0  0  0  0  0  0  0  0  0
   19.4615   -0.6584   10.2692 H   0  0  0  0  0  0  0  0  0  0  0  0
   18.3928   -3.7160   11.9855 H   0  0  0  0  0  0  0  0  0  0  0  0
   19.7520   -2.6042   12.1185 H   0  0  0  0  0  0  0  0  0  0  0  0
   17.5290   -3.0370   14.1038 H   0  0  0  0  0  0  0  0  0  0  0  0
   19.2366   -2.6048   14.3723 H   0  0  0  0  0  0  0  0  0  0  0  0
   17.9123   -0.5254   15.8282 H   0  0  0  0  0  0  0  0  0  0  0  0
   17.1566    1.8027   15.4430 H   0  0  0  0  0  0  0  0  0  0  0  0
   16.7228    2.6282   13.1515 H   0  0  0  0  0  0  0  0  0  0  0  0
   17.1251    1.1477   11.1988 H   0  0  0  0  0  0  0  0  0  0  0  0
   13.0760   -3.1816   14.6900 H   0  0  0  0  0  0  0  0  0  0  0  0
   16.0710   -4.2070   15.9414 H   0  0  0  0  0  0  0  0  0  0  0  0
   16.2336   -4.5155   17.6895 H   0  0  0  0  0  0  0  0  0  0  0  0
   16.7900   -2.9642   17.0059 H   0  0  0  0  0  0  0  0  0  0  0  0
  1  2  1  0
  2  3  1  0
  3  4  2  0
  4  5  1  0
  5  6  2  0
  6  7  1  0
  7  8  1  0
  8  9  2  3
  9 10  1  0
 10 11  1  0
 11 12  2  0
 11 13  1  0
 13 14  1  0
 14 15  1  0
 15 16  1  0
 16 17  1  0
 17 18  2  0
 18 19  1  0
 19 20  2  0
 20 21  1  0
 21 22  2  0
  6 23  1  0
 23 24  2  0
 24 25  1  0
 25 26  1  0
 25 27  2  0
 25 28  2  0
 24  3  1  0
 14  9  1  0
 22 17  1  0
 22 14  1  0
  1 29  1  0
  1 30  1  0
  1 31  1  0
  2 32  1  0
  4 33  1  0
  5 34  1  0
  7 35  1  0
 10 36  1  0
 13 37  1  0
 15 38  1  0
 15 39  1  0
 16 40  1  0
 16 41  1  0
 18 42  1  0
 19 43  1  0
 20 44  1  0
 21 45  1  0
 23 46  1  0
 26 47  1  0
 26 48  1  0
 26 49  1  0
M  END
>  <Energy>  (770) 
99.600635260977768

>  <compound_id>  (770) 
2058

>  <target_id>  (770) 
1

>  <reference_id>  (770) 
29

>  <inspiration_ids>  (770) 
[36, 29]

>  <energy_score>  (770) 
12.754642348485106

>  <distance_score>  (770) 
2.6096438617604174

>  <path>  (770) 
/opt/xchem-fragalysis-2/maxwin/BulkDock/SCRATCH/505732/C2058-P29/C2058-P29.minimised.mol

>  <scratch_subdir>  (770) 
/opt/xchem-fragalysis-2/maxwin/BulkDock/SCRATCH/505732/C2058-P29

>  <fragmenstein_runtime>  (770) 
4.6318039894104

>  <fragmenstein_outcome>  (770) 
too moved

>  <fragmenstein_mode>  (770) 
expansion

>  <fragmenstein_error>  (770) 


$$$$
C2059-P36
     RDKit          3D

 47 49  0  0  0  0  0  0  0  0999 V2000
   15.3019    0.1669   18.1193 C   0  0  0  0  0  0  0  0  0  0  0  0
   13.9143   -0.1728   17.8152 N   0  0  0  0  0  0  0  0  0  0  0  0
   13.7301   -0.8913   16.6290 C   0  0  0  0  0  0  0  0  0  0  0  0
   13.0305   -0.2600   15.5854 C   0  0  0  0  0  0  0  0  0  0  0  0
   13.0828   -0.7408   14.2736 C   0  0  0  0  0  0  0  0  0  0  0  0
   13.9369   -1.7915   13.9522 C   0  0  0  0  0  0  0  0  0  0  0  0
   14.1768   -2.1152   12.6130 N   0  0  0  0  0  0  0  0  0  0  0  0
   15.5325   -2.4705   12.0816 C   0  0  0  0  0  0  0  0  0  0  0  0
   16.2519   -1.3330   11.5117 N   0  0  0  0  0  0  0  0  0  0  0  0
   16.0908   -1.0363   10.2017 N   0  0  0  0  0  0  0  0  0  0  0  0
   15.9184    0.2963   10.2033 C   0  0  0  0  0  0  0  0  0  0  0  0
   15.5291    1.0130    8.9662 C   0  0  0  0  0  0  0  0  0  0  0  0
   16.1512    0.8307   11.4824 C   0  0  0  0  0  0  0  0  0  0  0  0
   16.5728   -0.2320   12.2473 C   0  0  0  0  0  0  0  0  0  0  0  0
   16.9584   -0.2115   13.6716 C   0  0  0  0  0  0  0  0  0  0  0  0
   16.9519    1.1636   14.1956 N   0  0  0  0  0  0  0  0  0  0  0  0
   15.8492    1.9774   13.6339 C   0  0  0  0  0  0  0  0  0  0  0  0
   15.9841    2.1697   12.0946 C   0  0  0  0  0  0  0  0  0  0  0  0
   14.4901   -2.5035   15.0253 C   0  0  0  0  0  0  0  0  0  0  0  0
   14.3042   -2.1269   16.3578 C   0  0  0  0  0  0  0  0  0  0  0  0
   14.7742   -3.3291   17.5909 S   0  0  0  0  0  0  0  0  0  0  0  0
   16.5181   -3.5242   17.3397 C   0  0  0  0  0  0  0  0  0  0  0  0
   14.6005   -2.7960   18.9264 O   0  0  0  0  0  0  0  0  0  0  0  0
   14.1534   -4.5947   17.2352 O   0  0  0  0  0  0  0  0  0  0  0  0
   15.7364    0.7791   17.3214 H   0  0  0  0  0  0  0  0  0  0  0  0
   15.3257    0.7564   19.0416 H   0  0  0  0  0  0  0  0  0  0  0  0
   15.9341   -0.7072   18.2785 H   0  0  0  0  0  0  0  0  0  0  0  0
   13.3498    0.6733   17.8361 H   0  0  0  0  0  0  0  0  0  0  0  0
   12.4876    0.6644   15.7680 H   0  0  0  0  0  0  0  0  0  0  0  0
   12.5476   -0.2031   13.4950 H   0  0  0  0  0  0  0  0  0  0  0  0
   13.7500   -1.4512   11.9705 H   0  0  0  0  0  0  0  0  0  0  0  0
   16.1843   -2.8992   12.8466 H   0  0  0  0  0  0  0  0  0  0  0  0
   15.3950   -3.1768   11.2587 H   0  0  0  0  0  0  0  0  0  0  0  0
   14.6094    1.5840    9.1285 H   0  0  0  0  0  0  0  0  0  0  0  0
   16.3188    1.7090    8.6663 H   0  0  0  0  0  0  0  0  0  0  0  0
   15.3545    0.3197    8.1368 H   0  0  0  0  0  0  0  0  0  0  0  0
   16.3078   -0.8095   14.2986 H   0  0  0  0  0  0  0  0  0  0  0  0
   17.9655   -0.6273   13.7898 H   0  0  0  0  0  0  0  0  0  0  0  0
   17.8286    1.5981   13.9054 H   0  0  0  0  0  0  0  0  0  0  0  0
   14.8851    1.5225   13.8844 H   0  0  0  0  0  0  0  0  0  0  0  0
   15.8644    2.9622   14.1141 H   0  0  0  0  0  0  0  0  0  0  0  0
   16.8549    2.7949   11.8664 H   0  0  0  0  0  0  0  0  0  0  0  0
   15.0906    2.6697   11.7065 H   0  0  0  0  0  0  0  0  0  0  0  0
   15.1199   -3.3666   14.8385 H   0  0  0  0  0  0  0  0  0  0  0  0
   17.0107   -2.5546   17.4202 H   0  0  0  0  0  0  0  0  0  0  0  0
   16.7058   -3.9714   16.3626 H   0  0  0  0  0  0  0  0  0  0  0  0
   16.8956   -4.1917   18.1181 H   0  0  0  0  0  0  0  0  0  0  0  0
  1  2  1  0
  2  3  1  0
  3  4  2  0
  4  5  1  0
  5  6  2  0
  6  7  1  0
  7  8  1  0
  8  9  1  0
  9 10  1  0
 10 11  2  0
 11 12  1  0
 11 13  1  0
 13 14  2  0
 14 15  1  0
 15 16  1  0
 16 17  1  0
 17 18  1  0
  6 19  1  0
 19 20  2  0
 20 21  1  0
 21 22  1  0
 21 23  2  0
 21 24  2  0
 20  3  1  0
 14  9  1  0
 18 13  1  0
  1 25  1  0
  1 26  1  0
  1 27  1  0
  2 28  1  0
  4 29  1  0
  5 30  1  0
  7 31  1  0
  8 32  1  0
  8 33  1  0
 12 34  1  0
 12 35  1  0
 12 36  1  0
 15 37  1  0
 15 38  1  0
 16 39  1  0
 17 40  1  0
 17 41  1  0
 18 42  1  0
 18 43  1  0
 19 44  1  0
 22 45  1  0
 22 46  1  0
 22 47  1  0
M  END
>  <Energy>  (771) 
115.52456119768982

>  <compound_id>  (771) 
2059

>  <target_id>  (771) 
1

>  <reference_id>  (771) 
36

>  <inspiration_ids>  (771) 
[36, 31]

>  <energy_score>  (771) 
-13.704362751729661

>  <distance_score>  (771) 
2.050102437788602

>  <path>  (771) 
/opt/xchem-fragalysis-2/maxwin/BulkDock/SCRATCH/505732/C2059-P36/C2059-P36.minimised.mol

>  <scratch_subdir>  (771) 
/opt/xchem-fragalysis-2/maxwin/BulkDock/SCRATCH/505732/C2059-P36

>  <fragmenstein_runtime>  (771) 
2.308955192565918

>  <fragmenstein_outcome>  (771) 
too moved

>  <fragmenstein_mode>  (771) 
expansion

>  <fragmenstein_error>  (771) 


$$$$
C2059-P31
     RDKit          3D

 47 49  0  0  0  0  0  0  0  0999 V2000
   17.1064   -0.3441   17.7053 C   0  0  0  0  0  0  0  0  0  0  0  0
   17.0577   -0.9506   16.3775 N   0  0  0  0  0  0  0  0  0  0  0  0
   15.8165   -0.9717   15.7303 C   0  0  0  0  0  0  0  0  0  0  0  0
   15.4618    0.0923   14.9015 C   0  0  0  0  0  0  0  0  0  0  0  0
   14.3458    0.0043   14.0875 C   0  0  0  0  0  0  0  0  0  0  0  0
   13.7282   -1.2176   13.9578 C   0  0  0  0  0  0  0  0  0  0  0  0
   13.5714   -1.7462   12.6461 N   0  0  0  0  0  0  0  0  0  0  0  0
   14.8562   -2.3606   12.0894 C   0  0  0  0  0  0  0  0  0  0  0  0
   16.0171   -1.5418   11.7530 N   0  0  0  0  0  0  0  0  0  0  0  0
   17.2661   -2.0247   11.9876 N   0  0  0  0  0  0  0  0  0  0  0  0
   18.0219   -0.9215   12.0340 C   0  0  0  0  0  0  0  0  0  0  0  0
   19.4372   -1.0095   12.4636 C   0  0  0  0  0  0  0  0  0  0  0  0
   17.2874    0.2187   11.6750 C   0  0  0  0  0  0  0  0  0  0  0  0
   16.0392   -0.2482   11.3506 C   0  0  0  0  0  0  0  0  0  0  0  0
   14.9182    0.5733   10.8858 C   0  0  0  0  0  0  0  0  0  0  0  0
   15.0454    1.9174   11.4715 N   0  0  0  0  0  0  0  0  0  0  0  0
   16.3756    2.4894   11.2173 C   0  0  0  0  0  0  0  0  0  0  0  0
   17.5896    1.6671   11.7178 C   0  0  0  0  0  0  0  0  0  0  0  0
   13.7554   -2.0560   15.0511 C   0  0  0  0  0  0  0  0  0  0  0  0
   14.8424   -1.9472   15.9236 C   0  0  0  0  0  0  0  0  0  0  0  0
   15.0464   -3.2128   17.0981 S   0  0  0  0  0  0  0  0  0  0  0  0
   16.6939   -3.8364   16.8753 C   0  0  0  0  0  0  0  0  0  0  0  0
   14.8912   -2.6992   18.4466 O   0  0  0  0  0  0  0  0  0  0  0  0
   14.1559   -4.2673   16.6609 O   0  0  0  0  0  0  0  0  0  0  0  0
   16.9288    0.7352   17.6577 H   0  0  0  0  0  0  0  0  0  0  0  0
   16.4384   -0.8158   18.4258 H   0  0  0  0  0  0  0  0  0  0  0  0
   18.1212   -0.4738   18.0975 H   0  0  0  0  0  0  0  0  0  0  0  0
   17.7209   -0.4644   15.7722 H   0  0  0  0  0  0  0  0  0  0  0  0
   16.0914    0.9736   14.8288 H   0  0  0  0  0  0  0  0  0  0  0  0
   14.1485    0.8016   13.3885 H   0  0  0  0  0  0  0  0  0  0  0  0
   12.9018   -2.5092   12.7406 H   0  0  0  0  0  0  0  0  0  0  0  0
   14.6086   -2.9041   11.1766 H   0  0  0  0  0  0  0  0  0  0  0  0
   15.2203   -3.0660   12.8311 H   0  0  0  0  0  0  0  0  0  0  0  0
   19.8790   -1.9697   12.1775 H   0  0  0  0  0  0  0  0  0  0  0  0
   20.0360   -0.2165   12.0044 H   0  0  0  0  0  0  0  0  0  0  0  0
   19.5085   -0.9077   13.5512 H   0  0  0  0  0  0  0  0  0  0  0  0
   14.9497    0.6487    9.7924 H   0  0  0  0  0  0  0  0  0  0  0  0
   13.9416    0.1773   11.1522 H   0  0  0  0  0  0  0  0  0  0  0  0
   14.3340    2.5170   11.0585 H   0  0  0  0  0  0  0  0  0  0  0  0
   16.4827    2.6400   10.1343 H   0  0  0  0  0  0  0  0  0  0  0  0
   16.4238    3.4895   11.6635 H   0  0  0  0  0  0  0  0  0  0  0  0
   18.4742    1.9004   11.1156 H   0  0  0  0  0  0  0  0  0  0  0  0
   17.8064    1.9474   12.7559 H   0  0  0  0  0  0  0  0  0  0  0  0
   13.0661   -2.8903   15.1135 H   0  0  0  0  0  0  0  0  0  0  0  0
   16.7708   -4.8185   17.3440 H   0  0  0  0  0  0  0  0  0  0  0  0
   17.4182   -3.1845   17.3605 H   0  0  0  0  0  0  0  0  0  0  0  0
   16.8984   -3.9397   15.8076 H   0  0  0  0  0  0  0  0  0  0  0  0
  1  2  1  0
  2  3  1  0
  3  4  2  0
  4  5  1  0
  5  6  2  0
  6  7  1  0
  7  8  1  0
  8  9  1  0
  9 10  1  0
 10 11  2  0
 11 12  1  0
 11 13  1  0
 13 14  2  0
 14 15  1  0
 15 16  1  0
 16 17  1  0
 17 18  1  0
  6 19  1  0
 19 20  2  0
 20 21  1  0
 21 22  1  0
 21 23  2  0
 21 24  2  0
 20  3  1  0
 14  9  1  0
 18 13  1  0
  1 25  1  0
  1 26  1  0
  1 27  1  0
  2 28  1  0
  4 29  1  0
  5 30  1  0
  7 31  1  0
  8 32  1  0
  8 33  1  0
 12 34  1  0
 12 35  1  0
 12 36  1  0
 15 37  1  0
 15 38  1  0
 16 39  1  0
 17 40  1  0
 17 41  1  0
 18 42  1  0
 18 43  1  0
 19 44  1  0
 22 45  1  0
 22 46  1  0
 22 47  1  0
M  END
>  <Energy>  (772) 
126.00285481982634

>  <compound_id>  (772) 
2059

>  <target_id>  (772) 
1

>  <reference_id>  (772) 
31

>  <inspiration_ids>  (772) 
[36, 31]

>  <energy_score>  (772) 
-3.2260691295942934

>  <distance_score>  (772) 
2.86370498507077

>  <path>  (772) 
/opt/xchem-fragalysis-2/maxwin/BulkDock/SCRATCH/505732/C2059-P31/C2059-P31.minimised.mol

>  <scratch_subdir>  (772) 
/opt/xchem-fragalysis-2/maxwin/BulkDock/SCRATCH/505732/C2059-P31

>  <fragmenstein_runtime>  (772) 
3.0230822563171387

>  <fragmenstein_outcome>  (772) 
too moved

>  <fragmenstein_mode>  (772) 
expansion

>  <fragmenstein_error>  (772) 


$$$$
C2060-P36
     RDKit          3D

 50 51  0  0  0  0  0  0  0  0999 V2000
   16.3495   -0.7154   17.5225 C   0  0  0  0  0  0  0  0  0  0  0  0
   16.2573   -1.5277   16.3032 N   0  0  0  0  0  0  0  0  0  0  0  0
   14.9549   -1.7327   15.8334 C   0  0  0  0  0  0  0  0  0  0  0  0
   14.5507   -1.0576   14.6815 C   0  0  0  0  0  0  0  0  0  0  0  0
   13.2041   -0.8997   14.3917 C   0  0  0  0  0  0  0  0  0  0  0  0
   12.2536   -1.3443   15.3048 C   0  0  0  0  0  0  0  0  0  0  0  0
   10.9514   -0.8060   15.3290 N   0  0  0  0  0  0  0  0  0  0  0  0
   10.9259    0.6533   15.1330 C   0  0  0  0  0  0  0  0  0  0  0  0
   11.6062    1.3276   16.2398 N   0  0  0  0  0  0  0  0  0  0  0  0
   12.5948    2.4489   15.9293 S   0  0  0  0  0  0  0  0  0  0  0  0
   12.1003    3.5884   17.0531 N   0  0  0  0  0  0  0  0  0  0  0  0
   12.5982    3.2113   14.7013 O   0  0  0  0  0  0  0  0  0  0  0  0
   14.2439    1.9027   16.2868 C   0  0  0  0  0  0  0  0  0  0  0  0
   15.0818    2.9433   16.9644 C   0  0  0  0  0  0  0  0  0  0  0  0
   15.2930    2.8745   18.3507 C   0  0  0  0  0  0  0  0  0  0  0  0
   16.0652    3.8341   19.0058 C   0  0  0  0  0  0  0  0  0  0  0  0
   16.6301    4.8873   18.2866 C   0  0  0  0  0  0  0  0  0  0  0  0
   17.4727    5.9224   18.9669 C   0  0  0  0  0  0  0  0  0  0  0  0
   16.4455    4.9303   16.9006 C   0  0  0  0  0  0  0  0  0  0  0  0
   17.0121    5.9124   16.1844 F   0  0  0  0  0  0  0  0  0  0  0  0
   15.6842    3.9718   16.2354 C   0  0  0  0  0  0  0  0  0  0  0  0
   12.6374   -2.2853   16.2581 C   0  0  0  0  0  0  0  0  0  0  0  0
   13.9956   -2.4692   16.5279 C   0  0  0  0  0  0  0  0  0  0  0  0
   14.4708   -3.6747   17.7360 S   0  0  0  0  0  0  0  0  0  0  0  0
   16.0732   -4.2782   17.2801 C   0  0  0  0  0  0  0  0  0  0  0  0
   14.5799   -2.9930   19.0118 O   0  0  0  0  0  0  0  0  0  0  0  0
   13.5842   -4.8147   17.5832 O   0  0  0  0  0  0  0  0  0  0  0  0
   15.4380   -0.7098   18.1266 H   0  0  0  0  0  0  0  0  0  0  0  0
   16.5931    0.3158   17.2527 H   0  0  0  0  0  0  0  0  0  0  0  0
   17.1688   -1.0950   18.1404 H   0  0  0  0  0  0  0  0  0  0  0  0
   16.8764   -1.1613   15.5801 H   0  0  0  0  0  0  0  0  0  0  0  0
   15.2815   -0.5649   14.0444 H   0  0  0  0  0  0  0  0  0  0  0  0
   12.9328   -0.3034   13.5258 H   0  0  0  0  0  0  0  0  0  0  0  0
   10.4446   -1.2054   14.5252 H   0  0  0  0  0  0  0  0  0  0  0  0
    9.8749    0.9633   15.1569 H   0  0  0  0  0  0  0  0  0  0  0  0
   11.2945    0.9419   14.1428 H   0  0  0  0  0  0  0  0  0  0  0  0
   11.2593    4.0006   16.6756 H   0  0  0  0  0  0  0  0  0  0  0  0
   11.8028    3.0869   17.8877 H   0  0  0  0  0  0  0  0  0  0  0  0
   14.1566    1.0181   16.9231 H   0  0  0  0  0  0  0  0  0  0  0  0
   14.7098    1.6095   15.3428 H   0  0  0  0  0  0  0  0  0  0  0  0
   14.8377    2.0797   18.9408 H   0  0  0  0  0  0  0  0  0  0  0  0
   16.2049    3.7621   20.0823 H   0  0  0  0  0  0  0  0  0  0  0  0
   17.2791    6.9157   18.5486 H   0  0  0  0  0  0  0  0  0  0  0  0
   18.5334    5.6829   18.8432 H   0  0  0  0  0  0  0  0  0  0  0  0
   17.2491    5.9726   20.0377 H   0  0  0  0  0  0  0  0  0  0  0  0
   15.5528    4.0583   15.1604 H   0  0  0  0  0  0  0  0  0  0  0  0
   11.8970   -2.7889   16.8654 H   0  0  0  0  0  0  0  0  0  0  0  0
   16.0896   -4.5054   16.2126 H   0  0  0  0  0  0  0  0  0  0  0  0
   16.2457   -5.2010   17.8412 H   0  0  0  0  0  0  0  0  0  0  0  0
   16.8505   -3.5696   17.5594 H   0  0  0  0  0  0  0  0  0  0  0  0
  1  2  1  0
  2  3  1  0
  3  4  2  0
  4  5  1  0
  5  6  2  0
  6  7  1  0
  7  8  1  0
  8  9  1  0
  9 10  2  0
 10 11  1  0
 10 12  2  0
 10 13  1  0
 13 14  1  0
 14 15  2  0
 15 16  1  0
 16 17  2  0
 17 18  1  0
 17 19  1  0
 19 20  1  0
 19 21  2  0
  6 22  1  0
 22 23  2  0
 23 24  1  0
 24 25  1  0
 24 26  2  0
 24 27  2  0
 23  3  1  0
 21 14  1  0
  1 28  1  0
  1 29  1  0
  1 30  1  0
  2 31  1  0
  4 32  1  0
  5 33  1  0
  7 34  1  0
  8 35  1  0
  8 36  1  0
 11 37  1  0
 11 38  1  0
 13 39  1  0
 13 40  1  0
 15 41  1  0
 16 42  1  0
 18 43  1  0
 18 44  1  0
 18 45  1  0
 21 46  1  0
 22 47  1  0
 25 48  1  0
 25 49  1  0
 25 50  1  0
M  END
>  <Energy>  (773) 
-66.614864587073143

>  <compound_id>  (773) 
2060

>  <target_id>  (773) 
1

>  <reference_id>  (773) 
36

>  <inspiration_ids>  (773) 
[36, 55]

>  <energy_score>  (773) 
-42.88690614688811

>  <distance_score>  (773) 
1.3919025742755273

>  <path>  (773) 
/opt/xchem-fragalysis-2/maxwin/BulkDock/SCRATCH/505732/C2060-P36/C2060-P36.minimised.mol

>  <scratch_subdir>  (773) 
/opt/xchem-fragalysis-2/maxwin/BulkDock/SCRATCH/505732/C2060-P36

>  <fragmenstein_runtime>  (773) 
3.8060686588287354

>  <fragmenstein_outcome>  (773) 
too moved

>  <fragmenstein_mode>  (773) 
expansion

>  <fragmenstein_error>  (773) 


$$$$
C2060-P55
     RDKit          3D

 50 51  0  0  0  0  0  0  0  0999 V2000
   16.3186   -0.7572   17.4300 C   0  0  0  0  0  0  0  0  0  0  0  0
   16.2519   -1.5166   16.1747 N   0  0  0  0  0  0  0  0  0  0  0  0
   14.9447   -1.8031   15.7495 C   0  0  0  0  0  0  0  0  0  0  0  0
   14.4987   -1.2232   14.5555 C   0  0  0  0  0  0  0  0  0  0  0  0
   13.1429   -1.1057   14.2908 C   0  0  0  0  0  0  0  0  0  0  0  0
   12.2443   -1.4743   15.2867 C   0  0  0  0  0  0  0  0  0  0  0  0
   11.0385   -0.7454   15.4612 N   0  0  0  0  0  0  0  0  0  0  0  0
   11.3007    0.7137   15.4857 C   0  0  0  0  0  0  0  0  0  0  0  0
   12.3643    1.0459   16.4417 N   0  0  0  0  0  0  0  0  0  0  0  0
   12.9685    2.4449   16.3835 S   0  0  0  0  0  0  0  0  0  0  0  0
   13.0483    2.7639   18.0209 N   0  0  0  0  0  0  0  0  0  0  0  0
   12.3057    3.6051   15.8370 O   0  0  0  0  0  0  0  0  0  0  0  0
   14.6435    2.3432   15.7625 C   0  0  0  0  0  0  0  0  0  0  0  0
   15.5483    3.2741   16.5213 C   0  0  0  0  0  0  0  0  0  0  0  0
   16.0654    2.9149   17.7788 C   0  0  0  0  0  0  0  0  0  0  0  0
   16.7923    3.8237   18.5486 C   0  0  0  0  0  0  0  0  0  0  0  0
   17.0208    5.1132   18.0714 C   0  0  0  0  0  0  0  0  0  0  0  0
   17.8044    6.1060   18.8740 C   0  0  0  0  0  0  0  0  0  0  0  0
   16.5612    5.4463   16.7935 C   0  0  0  0  0  0  0  0  0  0  0  0
   16.8077    6.6668   16.2951 F   0  0  0  0  0  0  0  0  0  0  0  0
   15.8334    4.5437   16.0194 C   0  0  0  0  0  0  0  0  0  0  0  0
   12.6595   -2.3451   16.2905 C   0  0  0  0  0  0  0  0  0  0  0  0
   14.0221   -2.5147   16.5150 C   0  0  0  0  0  0  0  0  0  0  0  0
   14.5340   -3.6402   17.7764 S   0  0  0  0  0  0  0  0  0  0  0  0
   16.1129   -4.2792   17.2828 C   0  0  0  0  0  0  0  0  0  0  0  0
   14.6988   -2.8851   19.0039 O   0  0  0  0  0  0  0  0  0  0  0  0
   13.6371   -4.7816   17.7346 O   0  0  0  0  0  0  0  0  0  0  0  0
   16.6791   -1.3926   18.2424 H   0  0  0  0  0  0  0  0  0  0  0  0
   15.3623   -0.3082   17.7182 H   0  0  0  0  0  0  0  0  0  0  0  0
   17.0515    0.0472   17.3121 H   0  0  0  0  0  0  0  0  0  0  0  0
   16.8012   -1.0696   15.4421 H   0  0  0  0  0  0  0  0  0  0  0  0
   15.2032   -0.7562   13.8723 H   0  0  0  0  0  0  0  0  0  0  0  0
   12.8238   -0.5384   13.4227 H   0  0  0  0  0  0  0  0  0  0  0  0
   10.4751   -0.9136   14.6170 H   0  0  0  0  0  0  0  0  0  0  0  0
   10.3728    1.2121   15.7894 H   0  0  0  0  0  0  0  0  0  0  0  0
   11.5384    1.0742   14.4769 H   0  0  0  0  0  0  0  0  0  0  0  0
   12.1522    3.1708   18.2925 H   0  0  0  0  0  0  0  0  0  0  0  0
   13.0470    1.8465   18.4451 H   0  0  0  0  0  0  0  0  0  0  0  0
   14.9953    1.3172   15.8783 H   0  0  0  0  0  0  0  0  0  0  0  0
   14.6192    2.5748   14.6931 H   0  0  0  0  0  0  0  0  0  0  0  0
   15.8446    1.9426   18.2102 H   0  0  0  0  0  0  0  0  0  0  0  0
   17.1507    3.5257   19.5313 H   0  0  0  0  0  0  0  0  0  0  0  0
   17.3826    7.1108   18.7669 H   0  0  0  0  0  0  0  0  0  0  0  0
   18.8468    6.1186   18.5410 H   0  0  0  0  0  0  0  0  0  0  0  0
   17.7815    5.8574   19.9403 H   0  0  0  0  0  0  0  0  0  0  0  0
   15.4596    4.8710   15.0536 H   0  0  0  0  0  0  0  0  0  0  0  0
   11.9466   -2.7727   16.9807 H   0  0  0  0  0  0  0  0  0  0  0  0
   16.0693   -4.5899   16.2372 H   0  0  0  0  0  0  0  0  0  0  0  0
   16.3203   -5.1533   17.9062 H   0  0  0  0  0  0  0  0  0  0  0  0
   16.9057   -3.5549   17.4536 H   0  0  0  0  0  0  0  0  0  0  0  0
  1  2  1  0
  2  3  1  0
  3  4  2  0
  4  5  1  0
  5  6  2  0
  6  7  1  0
  7  8  1  0
  8  9  1  0
  9 10  2  0
 10 11  1  0
 10 12  2  0
 10 13  1  0
 13 14  1  0
 14 15  2  0
 15 16  1  0
 16 17  2  0
 17 18  1  0
 17 19  1  0
 19 20  1  0
 19 21  2  0
  6 22  1  0
 22 23  2  0
 23 24  1  0
 24 25  1  0
 24 26  2  0
 24 27  2  0
 23  3  1  0
 21 14  1  0
  1 28  1  0
  1 29  1  0
  1 30  1  0
  2 31  1  0
  4 32  1  0
  5 33  1  0
  7 34  1  0
  8 35  1  0
  8 36  1  0
 11 37  1  0
 11 38  1  0
 13 39  1  0
 13 40  1  0
 15 41  1  0
 16 42  1  0
 18 43  1  0
 18 44  1  0
 18 45  1  0
 21 46  1  0
 22 47  1  0
 25 48  1  0
 25 49  1  0
 25 50  1  0
M  END
>  <Energy>  (774) 
-58.112083937612674

>  <compound_id>  (774) 
2060

>  <target_id>  (774) 
1

>  <reference_id>  (774) 
55

>  <inspiration_ids>  (774) 
[36, 55]

>  <energy_score>  (774) 
-34.384125497427675

>  <distance_score>  (774) 
1.3350767512565216

>  <path>  (774) 
/opt/xchem-fragalysis-2/maxwin/BulkDock/SCRATCH/505732/C2060-P55/C2060-P55.minimised.mol

>  <scratch_subdir>  (774) 
/opt/xchem-fragalysis-2/maxwin/BulkDock/SCRATCH/505732/C2060-P55

>  <fragmenstein_runtime>  (774) 
2.917257070541382

>  <fragmenstein_outcome>  (774) 
too moved

>  <fragmenstein_mode>  (774) 
expansion

>  <fragmenstein_error>  (774) 


$$$$
C2067-P36
     RDKit          3D

 55 59  0  0  0  0  0  0  0  0999 V2000
   18.1399   -5.3573   14.5639 C   0  0  0  0  0  0  0  0  0  0  0  0
   18.6144   -4.1606   13.7732 C   0  0  0  0  0  0  0  0  0  0  0  0
   18.3155   -2.9475   14.4882 O   0  0  0  0  0  0  0  0  0  0  0  0
   18.1491   -1.9196   13.5581 N   0  0  0  0  0  0  0  0  0  0  0  0
   19.0542   -1.6574   12.5439 C   0  0  0  0  0  0  0  0  0  0  0  0
   20.3599   -1.8461   12.7156 O   0  0  0  0  0  0  0  0  0  0  0  0
   18.2591   -1.3958   11.4476 C   0  0  0  0  0  0  0  0  0  0  0  0
   18.5904   -1.3703   10.1062 C   0  0  0  0  0  0  0  0  0  0  0  0
   17.4077   -1.1183    9.3604 C   0  0  0  0  0  0  0  0  0  0  0  0
   16.0868   -0.8417    9.9287 C   0  0  0  0  0  0  0  0  0  0  0  0
   15.8066   -0.7997   11.3069 C   0  0  0  0  0  0  0  0  0  0  0  0
   16.9667   -1.1456   11.9504 C   0  0  0  0  0  0  0  0  0  0  0  0
   16.9676   -1.3017   13.3004 C   0  0  0  0  0  0  0  0  0  0  0  0
   15.8523   -1.0181   14.2213 C   0  0  0  0  0  0  0  0  0  0  0  0
   14.8777    0.0349   13.5568 C   0  0  0  0  0  0  0  0  0  0  0  0
   14.5486   -0.4755   12.0705 C   0  0  0  0  0  0  0  0  0  0  0  0
   15.6354    1.3401   13.4626 N   0  0  0  0  0  0  0  0  0  0  0  0
   14.7527    2.4913   13.5702 C   0  0  0  0  0  0  0  0  0  0  0  0
   14.0595    2.5154   14.9383 C   0  0  0  0  0  0  0  0  0  0  0  0
   13.7166    1.2235   15.4484 O   0  0  0  0  0  0  0  0  0  0  0  0
   13.5437    0.2381   14.4134 C   0  0  0  0  0  0  0  0  0  0  0  0
   13.0170   -0.9930   15.1242 C   0  0  0  0  0  0  0  0  0  0  0  0
   11.8996   -1.6642   14.6279 C   0  0  0  0  0  0  0  0  0  0  0  0
   11.4928   -2.8682   15.1953 C   0  0  0  0  0  0  0  0  0  0  0  0
   12.2259   -3.4375   16.2346 C   0  0  0  0  0  0  0  0  0  0  0  0
   13.3415   -2.7812   16.7385 C   0  0  0  0  0  0  0  0  0  0  0  0
   14.0625   -3.4228   17.7049 O   0  0  0  0  0  0  0  0  0  0  0  0
   15.4433   -3.5523   17.3695 C   0  0  0  0  0  0  0  0  0  0  0  0
   15.6082   -3.9095   16.0801 F   0  0  0  0  0  0  0  0  0  0  0  0
   15.9768   -4.5259   18.1421 F   0  0  0  0  0  0  0  0  0  0  0  0
   16.1083   -2.4049   17.6154 F   0  0  0  0  0  0  0  0  0  0  0  0
   13.6757   -1.5218   16.2504 C   0  0  0  0  0  0  0  0  0  0  0  0
   18.6366   -5.3912   15.5394 H   0  0  0  0  0  0  0  0  0  0  0  0
   18.3514   -6.2890   14.0318 H   0  0  0  0  0  0  0  0  0  0  0  0
   17.0678   -5.2985   14.7643 H   0  0  0  0  0  0  0  0  0  0  0  0
   19.7007   -4.2335   13.6503 H   0  0  0  0  0  0  0  0  0  0  0  0
   18.1537   -4.1788   12.7815 H   0  0  0  0  0  0  0  0  0  0  0  0
   20.5128   -1.9862   13.6691 H   0  0  0  0  0  0  0  0  0  0  0  0
   19.5654   -1.5530    9.6823 H   0  0  0  0  0  0  0  0  0  0  0  0
   17.5046   -1.0726    8.2748 H   0  0  0  0  0  0  0  0  0  0  0  0
   15.2859   -0.6203    9.2247 H   0  0  0  0  0  0  0  0  0  0  0  0
   16.2337   -0.6474   15.1791 H   0  0  0  0  0  0  0  0  0  0  0  0
   15.3449   -1.9743   14.3782 H   0  0  0  0  0  0  0  0  0  0  0  0
   13.9350   -1.3816   12.1249 H   0  0  0  0  0  0  0  0  0  0  0  0
   13.9806    0.2928   11.5341 H   0  0  0  0  0  0  0  0  0  0  0  0
   16.1876    1.3670   12.6055 H   0  0  0  0  0  0  0  0  0  0  0  0
   15.3205    3.4184   13.4370 H   0  0  0  0  0  0  0  0  0  0  0  0
   14.0064    2.4670   12.7671 H   0  0  0  0  0  0  0  0  0  0  0  0
   14.7136    2.9821   15.6828 H   0  0  0  0  0  0  0  0  0  0  0  0
   13.1454    3.1164   14.8839 H   0  0  0  0  0  0  0  0  0  0  0  0
   12.7530    0.6201   13.7520 H   0  0  0  0  0  0  0  0  0  0  0  0
   11.3497   -1.2635   13.7819 H   0  0  0  0  0  0  0  0  0  0  0  0
   10.6283   -3.3880   14.7938 H   0  0  0  0  0  0  0  0  0  0  0  0
   11.9367   -4.4072   16.6302 H   0  0  0  0  0  0  0  0  0  0  0  0
   14.4998   -0.9640   16.6910 H   0  0  0  0  0  0  0  0  0  0  0  0
  1  2  1  0
  2  3  1  0
  3  4  1  0
  4  5  1  0
  5  6  1  0
  5  7  2  0
  7  8  1  0
  8  9  2  0
  9 10  1  0
 10 11  2  0
 11 12  1  0
 12 13  2  0
 13 14  1  0
 14 15  1  0
 15 16  1  0
 15 17  1  0
 17 18  1  0
 18 19  1  0
 19 20  1  0
 20 21  1  0
 21 22  1  0
 22 23  2  0
 23 24  1  0
 24 25  2  0
 25 26  1  0
 26 27  1  0
 27 28  1  0
 28 29  1  0
 28 30  1  0
 28 31  1  0
 26 32  2  0
 13  4  1  0
 21 15  1  0
 32 22  1  0
 12  7  1  0
 16 11  1  0
  1 33  1  0
  1 34  1  0
  1 35  1  0
  2 36  1  0
  2 37  1  0
  6 38  1  0
  8 39  1  0
  9 40  1  0
 10 41  1  0
 14 42  1  0
 14 43  1  0
 16 44  1  0
 16 45  1  0
 17 46  1  0
 18 47  1  0
 18 48  1  0
 19 49  1  0
 19 50  1  0
 21 51  1  0
 23 52  1  0
 24 53  1  0
 25 54  1  0
 32 55  1  0
M  END
>  <Energy>  (775) 
185.34829634615949

>  <compound_id>  (775) 
2067

>  <target_id>  (775) 
1

>  <reference_id>  (775) 
36

>  <inspiration_ids>  (775) 
[36, 83]

>  <energy_score>  (775) 
-59.91170871368257

>  <distance_score>  (775) 
1.4854956463995268

>  <path>  (775) 
/opt/xchem-fragalysis-2/maxwin/BulkDock/SCRATCH/505732/C2067-P36/C2067-P36.minimised.mol

>  <scratch_subdir>  (775) 
/opt/xchem-fragalysis-2/maxwin/BulkDock/SCRATCH/505732/C2067-P36

>  <fragmenstein_runtime>  (775) 
17.89769983291626

>  <fragmenstein_outcome>  (775) 
too moved

>  <fragmenstein_mode>  (775) 
expansion

>  <fragmenstein_error>  (775) 


$$$$
C2067-P83
     RDKit          3D

 55 59  0  0  0  0  0  0  0  0999 V2000
   18.9046   -5.0185   13.6247 C   0  0  0  0  0  0  0  0  0  0  0  0
   17.7580   -4.2173   14.2109 C   0  0  0  0  0  0  0  0  0  0  0  0
   18.1980   -2.9681   14.7765 O   0  0  0  0  0  0  0  0  0  0  0  0
   18.1431   -1.9789   13.8004 N   0  0  0  0  0  0  0  0  0  0  0  0
   19.1295   -1.8397   12.8451 C   0  0  0  0  0  0  0  0  0  0  0  0
   20.4003   -2.1215   13.1177 O   0  0  0  0  0  0  0  0  0  0  0  0
   18.4266   -1.6256   11.6798 C   0  0  0  0  0  0  0  0  0  0  0  0
   18.8338   -1.8277   10.3750 C   0  0  0  0  0  0  0  0  0  0  0  0
   17.6886   -1.7592    9.5386 C   0  0  0  0  0  0  0  0  0  0  0  0
   16.3320   -1.4536    9.9903 C   0  0  0  0  0  0  0  0  0  0  0  0
   15.9682   -1.1826   11.3210 C   0  0  0  0  0  0  0  0  0  0  0  0
   17.1063   -1.3177   12.0666 C   0  0  0  0  0  0  0  0  0  0  0  0
   17.0052   -1.3371   13.4224 C   0  0  0  0  0  0  0  0  0  0  0  0
   15.7999   -1.0746   14.2354 C   0  0  0  0  0  0  0  0  0  0  0  0
   14.7385   -0.2763   13.3928 C   0  0  0  0  0  0  0  0  0  0  0  0
   14.6324   -0.9712   11.9682 C   0  0  0  0  0  0  0  0  0  0  0  0
   15.2678    1.1282   13.2227 N   0  0  0  0  0  0  0  0  0  0  0  0
   14.1948    2.0761   12.9511 C   0  0  0  0  0  0  0  0  0  0  0  0
   13.1811    2.1324   14.1034 C   0  0  0  0  0  0  0  0  0  0  0  0
   13.0968    0.9247   14.8666 O   0  0  0  0  0  0  0  0  0  0  0  0
   13.2884   -0.2447   14.0594 C   0  0  0  0  0  0  0  0  0  0  0  0
   12.9202   -1.4364   14.9203 C   0  0  0  0  0  0  0  0  0  0  0  0
   11.9467   -2.3347   14.4786 C   0  0  0  0  0  0  0  0  0  0  0  0
   11.6880   -3.5086   15.1822 C   0  0  0  0  0  0  0  0  0  0  0  0
   12.4198   -3.8219   16.3220 C   0  0  0  0  0  0  0  0  0  0  0  0
   13.3909   -2.9389   16.7707 C   0  0  0  0  0  0  0  0  0  0  0  0
   14.1354   -3.2877   17.8607 O   0  0  0  0  0  0  0  0  0  0  0  0
   15.4533   -3.6757   17.4760 C   0  0  0  0  0  0  0  0  0  0  0  0
   16.0922   -4.1755   18.5581 F   0  0  0  0  0  0  0  0  0  0  0  0
   16.1583   -2.6081   17.0410 F   0  0  0  0  0  0  0  0  0  0  0  0
   15.4393   -4.6261   16.5163 F   0  0  0  0  0  0  0  0  0  0  0  0
   13.5821   -1.7180   16.1258 C   0  0  0  0  0  0  0  0  0  0  0  0
   19.7953   -4.9445   14.2571 H   0  0  0  0  0  0  0  0  0  0  0  0
   19.1767   -4.6532   12.6307 H   0  0  0  0  0  0  0  0  0  0  0  0
   18.6369   -6.0732   13.5318 H   0  0  0  0  0  0  0  0  0  0  0  0
   16.9401   -4.0942   13.4909 H   0  0  0  0  0  0  0  0  0  0  0  0
   17.3468   -4.7886   15.0488 H   0  0  0  0  0  0  0  0  0  0  0  0
   20.4518   -2.3278   14.0705 H   0  0  0  0  0  0  0  0  0  0  0  0
   19.8250   -2.0977   10.0455 H   0  0  0  0  0  0  0  0  0  0  0  0
   17.8398   -1.9503    8.4761 H   0  0  0  0  0  0  0  0  0  0  0  0
   15.5528   -1.4480    9.2366 H   0  0  0  0  0  0  0  0  0  0  0  0
   16.0684   -0.5312   15.1480 H   0  0  0  0  0  0  0  0  0  0  0  0
   15.4188   -2.0642   14.5021 H   0  0  0  0  0  0  0  0  0  0  0  0
   14.1444   -1.9472   12.0725 H   0  0  0  0  0  0  0  0  0  0  0  0
   14.0039   -0.3464   11.3440 H   0  0  0  0  0  0  0  0  0  0  0  0
   15.9743    1.1436   12.4864 H   0  0  0  0  0  0  0  0  0  0  0  0
   14.6091    3.0771   12.7878 H   0  0  0  0  0  0  0  0  0  0  0  0
   13.6805    1.8097   12.0202 H   0  0  0  0  0  0  0  0  0  0  0  0
   13.4574    2.9280   14.8029 H   0  0  0  0  0  0  0  0  0  0  0  0
   12.1835    2.3693   13.7172 H   0  0  0  0  0  0  0  0  0  0  0  0
   12.5427   -0.1715   13.2543 H   0  0  0  0  0  0  0  0  0  0  0  0
   11.3989   -2.1444   13.5625 H   0  0  0  0  0  0  0  0  0  0  0  0
   10.9420   -4.2073   14.8201 H   0  0  0  0  0  0  0  0  0  0  0  0
   12.2480   -4.7644   16.8376 H   0  0  0  0  0  0  0  0  0  0  0  0
   14.3037   -1.0069   16.5227 H   0  0  0  0  0  0  0  0  0  0  0  0
  1  2  1  0
  2  3  1  0
  3  4  1  0
  4  5  1  0
  5  6  1  0
  5  7  2  0
  7  8  1  0
  8  9  2  0
  9 10  1  0
 10 11  2  0
 11 12  1  0
 12 13  2  0
 13 14  1  0
 14 15  1  0
 15 16  1  0
 15 17  1  0
 17 18  1  0
 18 19  1  0
 19 20  1  0
 20 21  1  0
 21 22  1  0
 22 23  2  0
 23 24  1  0
 24 25  2  0
 25 26  1  0
 26 27  1  0
 27 28  1  0
 28 29  1  0
 28 30  1  0
 28 31  1  0
 26 32  2  0
 13  4  1  0
 21 15  1  0
 32 22  1  0
 12  7  1  0
 16 11  1  0
  1 33  1  0
  1 34  1  0
  1 35  1  0
  2 36  1  0
  2 37  1  0
  6 38  1  0
  8 39  1  0
  9 40  1  0
 10 41  1  0
 14 42  1  0
 14 43  1  0
 16 44  1  0
 16 45  1  0
 17 46  1  0
 18 47  1  0
 18 48  1  0
 19 49  1  0
 19 50  1  0
 21 51  1  0
 23 52  1  0
 24 53  1  0
 25 54  1  0
 32 55  1  0
M  END
>  <Energy>  (776) 
187.9635911575977

>  <compound_id>  (776) 
2067

>  <target_id>  (776) 
1

>  <reference_id>  (776) 
83

>  <inspiration_ids>  (776) 
[36, 83]

>  <energy_score>  (776) 
-57.29641390224526

>  <distance_score>  (776) 
1.444385677093384

>  <path>  (776) 
/opt/xchem-fragalysis-2/maxwin/BulkDock/SCRATCH/505732/C2067-P83/C2067-P83.minimised.mol

>  <scratch_subdir>  (776) 
/opt/xchem-fragalysis-2/maxwin/BulkDock/SCRATCH/505732/C2067-P83

>  <fragmenstein_runtime>  (776) 
18.173698902130127

>  <fragmenstein_outcome>  (776) 
too moved

>  <fragmenstein_mode>  (776) 
expansion

>  <fragmenstein_error>  (776) 


$$$$
C2068-P36
     RDKit          3D

 57 59  0  0  0  0  0  0  0  0999 V2000
   16.4918    2.0606   14.5539 C   0  0  0  0  0  0  0  0  0  0  0  0
   16.3681    1.2006   15.8094 C   0  0  0  0  0  0  0  0  0  0  0  0
   15.0583    1.4358   16.5353 C   0  0  0  0  0  0  0  0  0  0  0  0
   13.7788    1.2761   16.0968 C   0  0  0  0  0  0  0  0  0  0  0  0
   13.3712    0.0040   15.3830 C   0  0  0  0  0  0  0  0  0  0  0  0
   12.2877   -0.7107   15.9195 C   0  0  0  0  0  0  0  0  0  0  0  0
   12.4375   -2.0629   16.1926 C   0  0  0  0  0  0  0  0  0  0  0  0
   13.6495   -2.6586   15.8946 C   0  0  0  0  0  0  0  0  0  0  0  0
   14.1536   -3.9919   16.9332 S   0  0  0  0  0  0  0  0  0  0  0  0
   15.8009   -4.4341   16.4304 C   0  0  0  0  0  0  0  0  0  0  0  0
   14.2004   -3.4464   18.2797 O   0  0  0  0  0  0  0  0  0  0  0  0
   13.2691   -5.0954   16.6584 O   0  0  0  0  0  0  0  0  0  0  0  0
   14.5196   -2.0517   15.0024 C   0  0  0  0  0  0  0  0  0  0  0  0
   14.3062   -0.7238   14.6599 C   0  0  0  0  0  0  0  0  0  0  0  0
   12.6952    1.9122   16.6947 O   0  0  0  0  0  0  0  0  0  0  0  0
   12.8734    3.1692   17.2185 C   0  0  0  0  0  0  0  0  0  0  0  0
   13.8106    3.5280   18.1048 C   0  0  0  0  0  0  0  0  0  0  0  0
   14.7220    2.7016   18.6997 N   0  0  0  0  0  0  0  0  0  0  0  0
   15.2358    1.7340   18.0118 C   0  0  0  0  0  0  0  0  0  0  0  0
   16.1404    0.7617   18.7318 C   0  0  0  0  0  0  0  0  0  0  0  0
   17.1905    1.2466   19.5098 C   0  0  0  0  0  0  0  0  0  0  0  0
   18.0962    0.3491   20.0821 C   0  0  0  0  0  0  0  0  0  0  0  0
   17.9480   -1.0343   19.8985 C   0  0  0  0  0  0  0  0  0  0  0  0
   16.8639   -1.5458   19.1860 C   0  0  0  0  0  0  0  0  0  0  0  0
   16.6328   -2.9201   18.9180 N   0  0  0  0  0  0  0  0  0  0  0  0
   17.3942   -4.0193   19.3168 N   0  0  0  0  0  0  0  0  0  0  0  0
   17.1572   -4.3685   20.7096 C   0  0  0  0  0  0  0  0  0  0  0  0
   18.8151   -3.8927   19.1181 O   0  0  0  0  0  0  0  0  0  0  0  0
   19.2268   -4.7154   17.9978 N   0  0  0  0  0  0  0  0  0  0  0  0
   19.9144   -3.7905   17.1126 C   0  0  0  0  0  0  0  0  0  0  0  0
   15.9732   -0.6222   18.5934 C   0  0  0  0  0  0  0  0  0  0  0  0
   17.4433    1.8561   14.0525 H   0  0  0  0  0  0  0  0  0  0  0  0
   15.6870    1.8787   13.8364 H   0  0  0  0  0  0  0  0  0  0  0  0
   16.4723    3.1255   14.8114 H   0  0  0  0  0  0  0  0  0  0  0  0
   16.5407    0.1435   15.5949 H   0  0  0  0  0  0  0  0  0  0  0  0
   17.2117    1.4971   16.4454 H   0  0  0  0  0  0  0  0  0  0  0  0
   11.4352   -0.1874   16.3399 H   0  0  0  0  0  0  0  0  0  0  0  0
   11.7101   -2.5940   16.7895 H   0  0  0  0  0  0  0  0  0  0  0  0
   15.7741   -4.8484   15.4240 H   0  0  0  0  0  0  0  0  0  0  0  0
   16.1695   -5.1993   17.1149 H   0  0  0  0  0  0  0  0  0  0  0  0
   16.4528   -3.5617   16.4552 H   0  0  0  0  0  0  0  0  0  0  0  0
   15.4199   -2.5382   14.6400 H   0  0  0  0  0  0  0  0  0  0  0  0
   15.0402   -0.2365   14.0288 H   0  0  0  0  0  0  0  0  0  0  0  0
   12.1025    3.8432   16.8731 H   0  0  0  0  0  0  0  0  0  0  0  0
   13.7983    4.5452   18.4880 H   0  0  0  0  0  0  0  0  0  0  0  0
   17.3194    2.3171   19.6488 H   0  0  0  0  0  0  0  0  0  0  0  0
   18.9280    0.7267   20.6721 H   0  0  0  0  0  0  0  0  0  0  0  0
   18.6764   -1.6968   20.3535 H   0  0  0  0  0  0  0  0  0  0  0  0
   15.6153   -3.0947   18.9719 H   0  0  0  0  0  0  0  0  0  0  0  0
   16.0916   -4.5502   20.8894 H   0  0  0  0  0  0  0  0  0  0  0  0
   17.6839   -5.2958   20.9601 H   0  0  0  0  0  0  0  0  0  0  0  0
   17.4956   -3.5905   21.4017 H   0  0  0  0  0  0  0  0  0  0  0  0
   19.8983   -5.3270   18.4553 H   0  0  0  0  0  0  0  0  0  0  0  0
   20.7309   -3.2720   17.6261 H   0  0  0  0  0  0  0  0  0  0  0  0
   20.3409   -4.3398   16.2680 H   0  0  0  0  0  0  0  0  0  0  0  0
   19.2193   -3.0468   16.7096 H   0  0  0  0  0  0  0  0  0  0  0  0
   15.1321   -0.9909   18.0149 H   0  0  0  0  0  0  0  0  0  0  0  0
  1  2  1  0
  2  3  1  0
  3  4  2  0
  4  5  1  0
  5  6  2  0
  6  7  1  0
  7  8  2  0
  8  9  1  0
  9 10  1  0
  9 11  2  0
  9 12  2  0
  8 13  1  0
 13 14  2  0
  4 15  1  0
 15 16  1  0
 16 17  2  0
 17 18  1  0
 18 19  2  0
 19 20  1  0
 20 21  2  0
 21 22  1  0
 22 23  2  0
 23 24  1  0
 24 25  1  0
 25 26  1  0
 26 27  1  0
 26 28  1  0
 28 29  1  0
 29 30  1  0
 24 31  2  0
 19  3  1  0
 31 20  1  0
 14  5  1  0
  1 32  1  0
  1 33  1  0
  1 34  1  0
  2 35  1  0
  2 36  1  0
  6 37  1  0
  7 38  1  0
 10 39  1  0
 10 40  1  0
 10 41  1  0
 13 42  1  0
 14 43  1  0
 16 44  1  0
 17 45  1  0
 21 46  1  0
 22 47  1  0
 23 48  1  0
 25 49  1  0
 27 50  1  0
 27 51  1  0
 27 52  1  0
 29 53  1  0
 30 54  1  0
 30 55  1  0
 30 56  1  0
 31 57  1  0
M  END
>  <Energy>  (777) 
163.13098624100354

>  <compound_id>  (777) 
2068

>  <target_id>  (777) 
1

>  <reference_id>  (777) 
36

>  <inspiration_ids>  (777) 
[36, 86]

>  <energy_score>  (777) 
-68.90301491270174

>  <distance_score>  (777) 
1.8027542611155538

>  <path>  (777) 
/opt/xchem-fragalysis-2/maxwin/BulkDock/SCRATCH/505732/C2068-P36/C2068-P36.minimised.mol

>  <scratch_subdir>  (777) 
/opt/xchem-fragalysis-2/maxwin/BulkDock/SCRATCH/505732/C2068-P36

>  <fragmenstein_runtime>  (777) 
9.53437328338623

>  <fragmenstein_outcome>  (777) 
too moved

>  <fragmenstein_mode>  (777) 
expansion

>  <fragmenstein_error>  (777) 


$$$$
C2068-P86
     RDKit          3D

 57 59  0  0  0  0  0  0  0  0999 V2000
   16.2786    2.1904   14.6755 C   0  0  0  0  0  0  0  0  0  0  0  0
   16.1810    1.3488   15.9456 C   0  0  0  0  0  0  0  0  0  0  0  0
   14.8317    1.4803   16.6225 C   0  0  0  0  0  0  0  0  0  0  0  0
   13.5876    1.2595   16.1155 C   0  0  0  0  0  0  0  0  0  0  0  0
   13.2951   -0.0706   15.4572 C   0  0  0  0  0  0  0  0  0  0  0  0
   12.2320   -0.8305   15.9726 C   0  0  0  0  0  0  0  0  0  0  0  0
   12.4172   -2.1847   16.2187 C   0  0  0  0  0  0  0  0  0  0  0  0
   13.6528   -2.7411   15.9377 C   0  0  0  0  0  0  0  0  0  0  0  0
   14.1676   -4.0753   16.9731 S   0  0  0  0  0  0  0  0  0  0  0  0
   15.8150   -4.5159   16.4740 C   0  0  0  0  0  0  0  0  0  0  0  0
   14.2029   -3.5307   18.3196 O   0  0  0  0  0  0  0  0  0  0  0  0
   13.2954   -5.1895   16.6993 O   0  0  0  0  0  0  0  0  0  0  0  0
   14.5316   -2.0886   15.0876 C   0  0  0  0  0  0  0  0  0  0  0  0
   14.2897   -0.7579   14.7694 C   0  0  0  0  0  0  0  0  0  0  0  0
   12.4430    1.8421   16.6545 O   0  0  0  0  0  0  0  0  0  0  0  0
   12.5383    3.0905   17.2208 C   0  0  0  0  0  0  0  0  0  0  0  0
   13.4008    3.4510   18.1791 C   0  0  0  0  0  0  0  0  0  0  0  0
   14.3022    2.6364   18.8077 N   0  0  0  0  0  0  0  0  0  0  0  0
   14.9174    1.7301   18.1157 C   0  0  0  0  0  0  0  0  0  0  0  0
   15.8582    0.7935   18.8395 C   0  0  0  0  0  0  0  0  0  0  0  0
   16.8583    1.3195   19.6554 C   0  0  0  0  0  0  0  0  0  0  0  0
   17.8100    0.4636   20.2193 C   0  0  0  0  0  0  0  0  0  0  0  0
   17.7586   -0.9204   19.9900 C   0  0  0  0  0  0  0  0  0  0  0  0
   16.7247   -1.4774   19.2395 C   0  0  0  0  0  0  0  0  0  0  0  0
   16.5855   -2.8558   18.9268 N   0  0  0  0  0  0  0  0  0  0  0  0
   17.3912   -3.9236   19.3278 N   0  0  0  0  0  0  0  0  0  0  0  0
   17.1430   -4.3084   20.7092 C   0  0  0  0  0  0  0  0  0  0  0  0
   18.8076   -3.7310   19.1571 O   0  0  0  0  0  0  0  0  0  0  0  0
   19.2769   -4.5267   18.0401 N   0  0  0  0  0  0  0  0  0  0  0  0
   19.9302   -3.5649   17.1684 C   0  0  0  0  0  0  0  0  0  0  0  0
   15.7867   -0.5937   18.6560 C   0  0  0  0  0  0  0  0  0  0  0  0
   17.2667    2.0671   14.2202 H   0  0  0  0  0  0  0  0  0  0  0  0
   15.5279    1.9168   13.9291 H   0  0  0  0  0  0  0  0  0  0  0  0
   16.1471    3.2538   14.9049 H   0  0  0  0  0  0  0  0  0  0  0  0
   16.4501    0.3061   15.7592 H   0  0  0  0  0  0  0  0  0  0  0  0
   16.9686    1.7311   16.6075 H   0  0  0  0  0  0  0  0  0  0  0  0
   11.3553   -0.3425   16.3870 H   0  0  0  0  0  0  0  0  0  0  0  0
   11.6934   -2.7519   16.7868 H   0  0  0  0  0  0  0  0  0  0  0  0
   16.1750   -5.2912   17.1531 H   0  0  0  0  0  0  0  0  0  0  0  0
   16.4708   -3.6475   16.5082 H   0  0  0  0  0  0  0  0  0  0  0  0
   15.7888   -4.9209   15.4634 H   0  0  0  0  0  0  0  0  0  0  0  0
   15.4579   -2.5404   14.7463 H   0  0  0  0  0  0  0  0  0  0  0  0
   15.0291   -0.2379   14.1714 H   0  0  0  0  0  0  0  0  0  0  0  0
   11.7826    3.7525   16.8212 H   0  0  0  0  0  0  0  0  0  0  0  0
   13.3466    4.4621   18.5752 H   0  0  0  0  0  0  0  0  0  0  0  0
   16.9174    2.3911   19.8278 H   0  0  0  0  0  0  0  0  0  0  0  0
   18.6043    0.8755   20.8375 H   0  0  0  0  0  0  0  0  0  0  0  0
   18.5209   -1.5490   20.4376 H   0  0  0  0  0  0  0  0  0  0  0  0
   15.5786   -3.0860   18.9732 H   0  0  0  0  0  0  0  0  0  0  0  0
   16.0835   -4.5417   20.8643 H   0  0  0  0  0  0  0  0  0  0  0  0
   17.7066   -5.2151   20.9545 H   0  0  0  0  0  0  0  0  0  0  0  0
   17.4319   -3.5285   21.4213 H   0  0  0  0  0  0  0  0  0  0  0  0
   19.9712   -5.1063   18.5050 H   0  0  0  0  0  0  0  0  0  0  0  0
   20.7118   -3.0081   17.6959 H   0  0  0  0  0  0  0  0  0  0  0  0
   20.3963   -4.0887   16.3286 H   0  0  0  0  0  0  0  0  0  0  0  0
   19.2046   -2.8556   16.7574 H   0  0  0  0  0  0  0  0  0  0  0  0
   14.9855   -0.9990   18.0464 H   0  0  0  0  0  0  0  0  0  0  0  0
  1  2  1  0
  2  3  1  0
  3  4  2  0
  4  5  1  0
  5  6  2  0
  6  7  1  0
  7  8  2  0
  8  9  1  0
  9 10  1  0
  9 11  2  0
  9 12  2  0
  8 13  1  0
 13 14  2  0
  4 15  1  0
 15 16  1  0
 16 17  2  0
 17 18  1  0
 18 19  2  0
 19 20  1  0
 20 21  2  0
 21 22  1  0
 22 23  2  0
 23 24  1  0
 24 25  1  0
 25 26  1  0
 26 27  1  0
 26 28  1  0
 28 29  1  0
 29 30  1  0
 24 31  2  0
 19  3  1  0
 31 20  1  0
 14  5  1  0
  1 32  1  0
  1 33  1  0
  1 34  1  0
  2 35  1  0
  2 36  1  0
  6 37  1  0
  7 38  1  0
 10 39  1  0
 10 40  1  0
 10 41  1  0
 13 42  1  0
 14 43  1  0
 16 44  1  0
 17 45  1  0
 21 46  1  0
 22 47  1  0
 23 48  1  0
 25 49  1  0
 27 50  1  0
 27 51  1  0
 27 52  1  0
 29 53  1  0
 30 54  1  0
 30 55  1  0
 30 56  1  0
 31 57  1  0
M  END
>  <Energy>  (778) 
162.00039998567908

>  <compound_id>  (778) 
2068

>  <target_id>  (778) 
1

>  <reference_id>  (778) 
86

>  <inspiration_ids>  (778) 
[36, 86]

>  <energy_score>  (778) 
-70.0336011680227

>  <distance_score>  (778) 
1.7868563788250882

>  <path>  (778) 
/opt/xchem-fragalysis-2/maxwin/BulkDock/SCRATCH/505732/C2068-P86/C2068-P86.minimised.mol

>  <scratch_subdir>  (778) 
/opt/xchem-fragalysis-2/maxwin/BulkDock/SCRATCH/505732/C2068-P86

>  <fragmenstein_runtime>  (778) 
10.046502828598022

>  <fragmenstein_outcome>  (778) 
too moved

>  <fragmenstein_mode>  (778) 
expansion

>  <fragmenstein_error>  (778) 


$$$$
C2070-P36
     RDKit          3D

 48 49  0  0  0  0  0  0  0  0999 V2000
   13.3523    1.5698   17.0411 C   0  0  0  0  0  0  0  0  0  0  0  0
   13.3678    1.2920   15.6148 N   0  0  0  0  0  0  0  0  0  0  0  0
   12.1981    0.6193   15.0491 C   0  0  0  0  0  0  0  0  0  0  0  0
   10.9382    1.5368   14.9352 C   0  0  0  0  0  0  0  0  0  0  0  0
    9.6342    0.8745   15.4306 C   0  0  0  0  0  0  0  0  0  0  0  0
    9.2596   -0.4697   14.7065 C   0  0  0  0  0  0  0  0  0  0  0  0
    8.3823   -1.2606   15.6135 C   0  0  0  0  0  0  0  0  0  0  0  0
    7.8515   -2.5231   14.9309 C   0  0  0  0  0  0  0  0  0  0  0  0
    6.7036   -2.2681   13.9993 C   0  0  0  0  0  0  0  0  0  0  0  0
    5.3776   -3.0023   14.1328 N   0  0  0  0  0  0  0  0  0  0  0  0
    4.1127   -3.3718   12.8851 C   0  0  0  0  0  0  0  0  0  0  0  0
    4.1158   -3.1787   11.6935 O   0  0  0  0  0  0  0  0  0  0  0  0
    2.8710   -4.1341   13.3455 C   0  0  0  0  0  0  0  0  0  0  0  0
    2.4781   -4.9323   12.3285 F   0  0  0  0  0  0  0  0  0  0  0  0
    2.9108   -5.1094   14.7218 Cl  0  0  0  0  0  0  0  0  0  0  0  0
    7.1878   -1.3355   12.9235 C   0  0  0  0  0  0  0  0  0  0  0  0
    8.3520   -0.2625   13.4939 N   0  0  0  0  0  0  0  0  0  0  0  0
   10.6794   -1.2480   14.5832 C   0  0  0  0  0  0  0  0  0  0  0  0
   11.7774   -0.7631   15.5743 C   0  0  0  0  0  0  0  0  0  0  0  0
   13.0916   -1.9709   15.8435 S   0  0  0  0  0  0  0  0  0  0  0  0
   14.3271   -1.7051   14.5934 C   0  0  0  0  0  0  0  0  0  0  0  0
   13.7038   -1.7016   17.1328 O   0  0  0  0  0  0  0  0  0  0  0  0
   12.5233   -3.2894   15.6269 O   0  0  0  0  0  0  0  0  0  0  0  0
   14.2840    2.0751   17.3159 H   0  0  0  0  0  0  0  0  0  0  0  0
   12.5293    2.2356   17.3143 H   0  0  0  0  0  0  0  0  0  0  0  0
   13.3026    0.6614   17.6391 H   0  0  0  0  0  0  0  0  0  0  0  0
   13.5324    2.1735   15.1232 H   0  0  0  0  0  0  0  0  0  0  0  0
   12.5209    0.4598   14.0100 H   0  0  0  0  0  0  0  0  0  0  0  0
   11.0826    2.4638   15.5028 H   0  0  0  0  0  0  0  0  0  0  0  0
   10.8118    1.8451   13.8893 H   0  0  0  0  0  0  0  0  0  0  0  0
    8.8181    1.5975   15.4322 H   0  0  0  0  0  0  0  0  0  0  0  0
    9.7501    0.6870   16.5063 H   0  0  0  0  0  0  0  0  0  0  0  0
    7.5821   -0.6526   16.0451 H   0  0  0  0  0  0  0  0  0  0  0  0
    9.0379   -1.5199   16.4195 H   0  0  0  0  0  0  0  0  0  0  0  0
    8.6812   -3.0242   14.4798 H   0  0  0  0  0  0  0  0  0  0  0  0
    7.4996   -3.2140   15.6382 H   0  0  0  0  0  0  0  0  0  0  0  0
    6.2967   -1.5630   14.6524 H   0  0  0  0  0  0  0  0  0  0  0  0
    5.0693   -3.3025   15.0525 H   0  0  0  0  0  0  0  0  0  0  0  0
    2.1161   -3.4160   13.5780 H   0  0  0  0  0  0  0  0  0  0  0  0
    6.3636   -0.7517   12.5321 H   0  0  0  0  0  0  0  0  0  0  0  0
    7.4143   -1.8173   11.9851 H   0  0  0  0  0  0  0  0  0  0  0  0
    9.0253   -0.3984   12.7450 H   0  0  0  0  0  0  0  0  0  0  0  0
   10.5413   -2.3252   14.6920 H   0  0  0  0  0  0  0  0  0  0  0  0
   11.1072   -1.0927   13.5859 H   0  0  0  0  0  0  0  0  0  0  0  0
   11.3491   -0.6807   16.5735 H   0  0  0  0  0  0  0  0  0  0  0  0
   15.0792   -2.4909   14.6920 H   0  0  0  0  0  0  0  0  0  0  0  0
   13.8530   -1.7615   13.6120 H   0  0  0  0  0  0  0  0  0  0  0  0
   14.8066   -0.7388   14.7419 H   0  0  0  0  0  0  0  0  0  0  0  0
  1  2  1  0
  2  3  1  0
  3  4  1  0
  4  5  1  0
  5  6  1  0
  6  7  1  0
  7  8  1  0
  8  9  1  0
  9 10  1  0
 10 11  1  0
 11 12  2  0
 11 13  1  0
 13 14  1  0
 13 15  1  0
  9 16  1  0
 16 17  1  0
  6 18  1  0
 18 19  1  0
 19 20  1  0
 20 21  1  0
 20 22  2  0
 20 23  2  0
 19  3  1  0
 17  6  1  0
  1 24  1  0
  1 25  1  0
  1 26  1  0
  2 27  1  0
  3 28  1  0
  4 29  1  0
  4 30  1  0
  5 31  1  0
  5 32  1  0
  7 33  1  0
  7 34  1  0
  8 35  1  0
  8 36  1  0
  9 37  1  0
 10 38  1  0
 13 39  1  0
 16 40  1  0
 16 41  1  0
 17 42  1  0
 18 43  1  0
 18 44  1  0
 19 45  1  0
 21 46  1  0
 21 47  1  0
 21 48  1  0
M  END
>  <Energy>  (779) 
243.86732692618179

>  <compound_id>  (779) 
2070

>  <target_id>  (779) 
1

>  <reference_id>  (779) 
36

>  <inspiration_ids>  (779) 
[36, 98]

>  <energy_score>  (779) 
96.55258697981691

>  <distance_score>  (779) 
3.0393619615021152

>  <path>  (779) 
/opt/xchem-fragalysis-2/maxwin/BulkDock/SCRATCH/505732/C2070-P36/C2070-P36.minimised.mol

>  <scratch_subdir>  (779) 
/opt/xchem-fragalysis-2/maxwin/BulkDock/SCRATCH/505732/C2070-P36

>  <fragmenstein_runtime>  (779) 
5.926326513290405

>  <fragmenstein_outcome>  (779) 
too moved

>  <fragmenstein_mode>  (779) 
expansion

>  <fragmenstein_error>  (779) 


$$$$
C2070-P98
     RDKit          3D

 48 49  0  0  0  0  0  0  0  0999 V2000
   15.0718    1.6871   16.6181 C   0  0  0  0  0  0  0  0  0  0  0  0
   15.2766    0.7195   15.5490 N   0  0  0  0  0  0  0  0  0  0  0  0
   14.1311   -0.1317   15.2103 C   0  0  0  0  0  0  0  0  0  0  0  0
   13.0932    0.6504   14.3730 C   0  0  0  0  0  0  0  0  0  0  0  0
   11.9680   -0.2639   13.8682 C   0  0  0  0  0  0  0  0  0  0  0  0
   11.1815   -0.9144   15.0307 C   0  0  0  0  0  0  0  0  0  0  0  0
   10.1655    0.1577   15.6531 C   0  0  0  0  0  0  0  0  0  0  0  0
    8.5437   -0.0079   15.4990 C   0  0  0  0  0  0  0  0  0  0  0  0
    8.2429   -1.0367   14.3467 C   0  0  0  0  0  0  0  0  0  0  0  0
    7.0070   -1.6646   13.4598 N   0  0  0  0  0  0  0  0  0  0  0  0
    5.9157   -2.6078   13.8348 C   0  0  0  0  0  0  0  0  0  0  0  0
    5.6301   -3.0709   14.8982 O   0  0  0  0  0  0  0  0  0  0  0  0
    4.6067   -3.2174   12.4496 C   0  0  0  0  0  0  0  0  0  0  0  0
    4.8590   -4.3183   11.7400 F   0  0  0  0  0  0  0  0  0  0  0  0
    2.8883   -4.0711   13.3046 Cl  0  0  0  0  0  0  0  0  0  0  0  0
    9.0979   -2.1503   14.8844 C   0  0  0  0  0  0  0  0  0  0  0  0
   10.5104   -2.1299   14.5917 N   0  0  0  0  0  0  0  0  0  0  0  0
   12.2332   -1.6107   15.9345 C   0  0  0  0  0  0  0  0  0  0  0  0
   13.4624   -0.8382   16.3954 C   0  0  0  0  0  0  0  0  0  0  0  0
   14.5759   -1.9990   17.3008 S   0  0  0  0  0  0  0  0  0  0  0  0
   15.9988   -2.3340   16.2868 C   0  0  0  0  0  0  0  0  0  0  0  0
   15.0412   -1.3108   18.4920 O   0  0  0  0  0  0  0  0  0  0  0  0
   13.9020   -3.2783   17.4532 O   0  0  0  0  0  0  0  0  0  0  0  0
   15.9773    2.2932   16.7265 H   0  0  0  0  0  0  0  0  0  0  0  0
   14.2453    2.3697   16.4007 H   0  0  0  0  0  0  0  0  0  0  0  0
   14.9000    1.2094   17.5851 H   0  0  0  0  0  0  0  0  0  0  0  0
   15.6096    1.2096   14.7162 H   0  0  0  0  0  0  0  0  0  0  0  0
   14.5302   -0.9026   14.5394 H   0  0  0  0  0  0  0  0  0  0  0  0
   12.6684    1.4751   14.9562 H   0  0  0  0  0  0  0  0  0  0  0  0
   13.5860    1.1007   13.5019 H   0  0  0  0  0  0  0  0  0  0  0  0
   12.4227   -1.0359   13.2314 H   0  0  0  0  0  0  0  0  0  0  0  0
   11.2919    0.3038   13.2166 H   0  0  0  0  0  0  0  0  0  0  0  0
   10.3857    1.1385   15.2118 H   0  0  0  0  0  0  0  0  0  0  0  0
   10.3703    0.2748   16.7069 H   0  0  0  0  0  0  0  0  0  0  0  0
    8.1056   -0.3278   16.4482 H   0  0  0  0  0  0  0  0  0  0  0  0
    8.1672    1.0023   15.3821 H   0  0  0  0  0  0  0  0  0  0  0  0
    8.6413   -0.3624   13.5812 H   0  0  0  0  0  0  0  0  0  0  0  0
    7.0115   -1.5443   12.4489 H   0  0  0  0  0  0  0  0  0  0  0  0
    4.0011   -2.5735   11.8366 H   0  0  0  0  0  0  0  0  0  0  0  0
    8.6472   -3.1144   14.7277 H   0  0  0  0  0  0  0  0  0  0  0  0
    9.0892   -1.9674   15.9385 H   0  0  0  0  0  0  0  0  0  0  0  0
   10.5831   -2.2150   13.5750 H   0  0  0  0  0  0  0  0  0  0  0  0
   11.7491   -2.0670   16.7913 H   0  0  0  0  0  0  0  0  0  0  0  0
   12.6427   -2.4700   15.3724 H   0  0  0  0  0  0  0  0  0  0  0  0
   13.1399   -0.1057   17.1398 H   0  0  0  0  0  0  0  0  0  0  0  0
   16.5925   -3.0980   16.7957 H   0  0  0  0  0  0  0  0  0  0  0  0
   15.6686   -2.7215   15.3220 H   0  0  0  0  0  0  0  0  0  0  0  0
   16.6027   -1.4350   16.1765 H   0  0  0  0  0  0  0  0  0  0  0  0
  1  2  1  0
  2  3  1  0
  3  4  1  0
  4  5  1  0
  5  6  1  0
  6  7  1  0
  7  8  1  0
  8  9  1  0
  9 10  1  0
 10 11  1  0
 11 12  2  0
 11 13  1  0
 13 14  1  0
 13 15  1  0
  9 16  1  0
 16 17  1  0
  6 18  1  0
 18 19  1  0
 19 20  1  0
 20 21  1  0
 20 22  2  0
 20 23  2  0
 19  3  1  0
 17  6  1  0
  1 24  1  0
  1 25  1  0
  1 26  1  0
  2 27  1  0
  3 28  1  0
  4 29  1  0
  4 30  1  0
  5 31  1  0
  5 32  1  0
  7 33  1  0
  7 34  1  0
  8 35  1  0
  8 36  1  0
  9 37  1  0
 10 38  1  0
 13 39  1  0
 16 40  1  0
 16 41  1  0
 17 42  1  0
 18 43  1  0
 18 44  1  0
 19 45  1  0
 21 46  1  0
 21 47  1  0
 21 48  1  0
M  END
>  <Energy>  (780) 
254.29983258362498

>  <compound_id>  (780) 
2070

>  <target_id>  (780) 
1

>  <reference_id>  (780) 
98

>  <inspiration_ids>  (780) 
[36, 98]

>  <energy_score>  (780) 
106.98509263726282

>  <distance_score>  (780) 
1.8119046490884207

>  <path>  (780) 
/opt/xchem-fragalysis-2/maxwin/BulkDock/SCRATCH/505732/C2070-P98/C2070-P98.minimised.mol

>  <scratch_subdir>  (780) 
/opt/xchem-fragalysis-2/maxwin/BulkDock/SCRATCH/505732/C2070-P98

>  <fragmenstein_runtime>  (780) 
7.6913001537323

>  <fragmenstein_outcome>  (780) 
too moved

>  <fragmenstein_mode>  (780) 
expansion

>  <fragmenstein_error>  (780) 


$$$$
C2074-P36
     RDKit          3D

 29 30  0  0  0  0  0  0  0  0999 V2000
    9.0654   -1.2061   15.3629 N   0  0  0  0  0  0  0  0  0  0  0  0
   10.2381   -0.3402   15.2119 C   0  0  0  0  0  0  0  0  0  0  0  0
   11.5379   -0.9519   15.6822 C   0  0  0  0  0  0  0  0  0  0  0  0
   11.7285   -2.3395   15.8283 C   0  0  0  0  0  0  0  0  0  0  0  0
   12.8956   -2.7923   16.4239 C   0  0  0  0  0  0  0  0  0  0  0  0
   13.9063   -1.9042   16.7887 C   0  0  0  0  0  0  0  0  0  0  0  0
   13.7774   -0.5451   16.5822 C   0  0  0  0  0  0  0  0  0  0  0  0
   12.5896   -0.0643   16.0283 C   0  0  0  0  0  0  0  0  0  0  0  0
   12.3159    1.2640   15.8200 O   0  0  0  0  0  0  0  0  0  0  0  0
   13.3267    2.1977   16.1524 C   0  0  0  0  0  0  0  0  0  0  0  0
   12.8306    3.5073   15.9214 O   0  0  0  0  0  0  0  0  0  0  0  0
   15.0438   -2.6133   17.4563 C   0  0  0  0  0  0  0  0  0  0  0  0
   14.7779   -4.0560   17.0336 C   0  0  0  0  0  0  0  0  0  0  0  0
   13.2518   -4.1697   16.8862 C   0  0  0  0  0  0  0  0  0  0  0  0
    8.2479   -0.6079   15.2876 H   0  0  0  0  0  0  0  0  0  0  0  0
    9.0542   -1.7798   14.5046 H   0  0  0  0  0  0  0  0  0  0  0  0
   10.3388   -0.0133   14.1712 H   0  0  0  0  0  0  0  0  0  0  0  0
   10.0225    0.5488   15.8166 H   0  0  0  0  0  0  0  0  0  0  0  0
   10.9560   -3.0474   15.5475 H   0  0  0  0  0  0  0  0  0  0  0  0
   14.5933    0.1023   16.8806 H   0  0  0  0  0  0  0  0  0  0  0  0
   13.6132    2.1282   17.2080 H   0  0  0  0  0  0  0  0  0  0  0  0
   14.2019    2.0596   15.5090 H   0  0  0  0  0  0  0  0  0  0  0  0
   12.2809    3.7119   16.6981 H   0  0  0  0  0  0  0  0  0  0  0  0
   16.0189   -2.2656   17.1039 H   0  0  0  0  0  0  0  0  0  0  0  0
   14.9732   -2.4965   18.5427 H   0  0  0  0  0  0  0  0  0  0  0  0
   15.1878   -4.7735   17.7500 H   0  0  0  0  0  0  0  0  0  0  0  0
   15.2558   -4.2490   16.0637 H   0  0  0  0  0  0  0  0  0  0  0  0
   12.7898   -4.3628   17.8589 H   0  0  0  0  0  0  0  0  0  0  0  0
   12.9642   -4.9489   16.1863 H   0  0  0  0  0  0  0  0  0  0  0  0
  1  2  1  0
  2  3  1  0
  3  4  2  0
  4  5  1  0
  5  6  2  0
  6  7  1  0
  7  8  2  0
  8  9  1  0
  9 10  1  0
 10 11  1  0
  6 12  1  0
 12 13  1  0
 13 14  1  0
  8  3  1  0
 14  5  1  0
  1 15  1  0
  1 16  1  0
  2 17  1  0
  2 18  1  0
  4 19  1  0
  7 20  1  0
 10 21  1  0
 10 22  1  0
 11 23  1  0
 12 24  1  0
 12 25  1  0
 13 26  1  0
 13 27  1  0
 14 28  1  0
 14 29  1  0
M  END
>  <Energy>  (781) 
14.25340387975308

>  <compound_id>  (781) 
2074

>  <target_id>  (781) 
1

>  <reference_id>  (781) 
36

>  <inspiration_ids>  (781) 
[36, 113]

>  <energy_score>  (781) 
-16.583566514248506

>  <distance_score>  (781) 
1.3682735177151912

>  <path>  (781) 
/opt/xchem-fragalysis-2/maxwin/BulkDock/SCRATCH/505732/C2074-P36/C2074-P36.minimised.mol

>  <scratch_subdir>  (781) 
/opt/xchem-fragalysis-2/maxwin/BulkDock/SCRATCH/505732/C2074-P36

>  <fragmenstein_runtime>  (781) 
2.644784927368164

>  <fragmenstein_outcome>  (781) 
too moved

>  <fragmenstein_mode>  (781) 
expansion

>  <fragmenstein_error>  (781) 


$$$$
C2074-P113
     RDKit          3D

 29 30  0  0  0  0  0  0  0  0999 V2000
    9.1385   -1.4300   15.1307 N   0  0  0  0  0  0  0  0  0  0  0  0
   10.2498   -0.4763   15.1147 C   0  0  0  0  0  0  0  0  0  0  0  0
   11.5397   -0.9911   15.7103 C   0  0  0  0  0  0  0  0  0  0  0  0
   11.7697   -2.3524   15.9845 C   0  0  0  0  0  0  0  0  0  0  0  0
   12.9219   -2.7090   16.6675 C   0  0  0  0  0  0  0  0  0  0  0  0
   13.8936   -1.7627   16.9824 C   0  0  0  0  0  0  0  0  0  0  0  0
   13.7231   -0.4311   16.6684 C   0  0  0  0  0  0  0  0  0  0  0  0
   12.5369   -0.0375   16.0444 C   0  0  0  0  0  0  0  0  0  0  0  0
   12.2232    1.2656   15.7469 O   0  0  0  0  0  0  0  0  0  0  0  0
   13.1672    2.2545   16.1211 C   0  0  0  0  0  0  0  0  0  0  0  0
   12.6297    3.5363   15.8361 O   0  0  0  0  0  0  0  0  0  0  0  0
   15.0367   -2.3762   17.7294 C   0  0  0  0  0  0  0  0  0  0  0  0
   14.8208   -3.8562   17.4283 C   0  0  0  0  0  0  0  0  0  0  0  0
   13.3006   -4.0234   17.2706 C   0  0  0  0  0  0  0  0  0  0  0  0
    8.3092   -0.9122   14.8553 H   0  0  0  0  0  0  0  0  0  0  0  0
    9.2986   -2.0428   14.3162 H   0  0  0  0  0  0  0  0  0  0  0  0
   10.4323   -0.1389   14.0881 H   0  0  0  0  0  0  0  0  0  0  0  0
    9.9130    0.3890   15.6980 H   0  0  0  0  0  0  0  0  0  0  0  0
   11.0374   -3.1123   15.7326 H   0  0  0  0  0  0  0  0  0  0  0  0
   14.5067    0.2652   16.9418 H   0  0  0  0  0  0  0  0  0  0  0  0
   13.3927    2.2185   17.1932 H   0  0  0  0  0  0  0  0  0  0  0  0
   14.0847    2.1464   15.5332 H   0  0  0  0  0  0  0  0  0  0  0  0
   12.0426    3.7358   16.5866 H   0  0  0  0  0  0  0  0  0  0  0  0
   16.0084   -2.0304   17.3660 H   0  0  0  0  0  0  0  0  0  0  0  0
   14.9403   -2.1686   18.8002 H   0  0  0  0  0  0  0  0  0  0  0  0
   15.2367   -4.4961   18.2120 H   0  0  0  0  0  0  0  0  0  0  0  0
   15.3244   -4.1156   16.4879 H   0  0  0  0  0  0  0  0  0  0  0  0
   12.8328   -4.1351   18.2523 H   0  0  0  0  0  0  0  0  0  0  0  0
   13.0318   -4.8710   16.6483 H   0  0  0  0  0  0  0  0  0  0  0  0
  1  2  1  0
  2  3  1  0
  3  4  2  0
  4  5  1  0
  5  6  2  0
  6  7  1  0
  7  8  2  0
  8  9  1  0
  9 10  1  0
 10 11  1  0
  6 12  1  0
 12 13  1  0
 13 14  1  0
  8  3  1  0
 14  5  1  0
  1 15  1  0
  1 16  1  0
  2 17  1  0
  2 18  1  0
  4 19  1  0
  7 20  1  0
 10 21  1  0
 10 22  1  0
 11 23  1  0
 12 24  1  0
 12 25  1  0
 13 26  1  0
 13 27  1  0
 14 28  1  0
 14 29  1  0
M  END
>  <Energy>  (782) 
13.857310176062114

>  <compound_id>  (782) 
2074

>  <target_id>  (782) 
1

>  <reference_id>  (782) 
113

>  <inspiration_ids>  (782) 
[36, 113]

>  <energy_score>  (782) 
-16.97966021793934

>  <distance_score>  (782) 
1.4865392052296031

>  <path>  (782) 
/opt/xchem-fragalysis-2/maxwin/BulkDock/SCRATCH/505732/C2074-P113/C2074-P113.minimised.mol

>  <scratch_subdir>  (782) 
/opt/xchem-fragalysis-2/maxwin/BulkDock/SCRATCH/505732/C2074-P113

>  <fragmenstein_runtime>  (782) 
2.211705446243286

>  <fragmenstein_outcome>  (782) 
too moved

>  <fragmenstein_mode>  (782) 
expansion

>  <fragmenstein_error>  (782) 


$$$$
C2078-P36
     RDKit          3D

 38 39  0  0  0  0  0  0  0  0999 V2000
   15.4748   -0.3575   17.8847 C   0  0  0  0  0  0  0  0  0  0  0  0
   15.2950   -0.3235   16.4313 N   0  0  0  0  0  0  0  0  0  0  0  0
   13.9034   -0.6810   16.0563 C   0  0  0  0  0  0  0  0  0  0  0  0
   13.8811   -2.1074   15.4816 C   0  0  0  0  0  0  0  0  0  0  0  0
   12.4471   -2.6341   15.3507 C   0  0  0  0  0  0  0  0  0  0  0  0
   12.2068   -3.6709   16.4315 C   0  0  0  0  0  0  0  0  0  0  0  0
   11.4658   -1.4679   15.3908 C   0  0  0  0  0  0  0  0  0  0  0  0
   10.4271   -1.4657   16.0485 O   0  0  0  0  0  0  0  0  0  0  0  0
   11.8632   -0.2705   14.5654 C   0  0  0  0  0  0  0  0  0  0  0  0
   13.2407    0.3350   15.0205 C   0  0  0  0  0  0  0  0  0  0  0  0
   13.0079    1.7223   15.7039 C   0  0  0  0  0  0  0  0  0  0  0  0
   13.9557    2.8376   15.2713 C   0  0  0  0  0  0  0  0  0  0  0  0
   13.9637    3.0127   13.7625 C   0  0  0  0  0  0  0  0  0  0  0  0
   13.6296    1.7164   13.0257 C   0  0  0  0  0  0  0  0  0  0  0  0
   14.0131    0.4921   13.7443 N   0  0  0  0  0  0  0  0  0  0  0  0
   15.4390    0.6540   13.9854 O   0  0  0  0  0  0  0  0  0  0  0  0
   15.2519   -1.3485   18.2934 H   0  0  0  0  0  0  0  0  0  0  0  0
   16.5150   -0.1177   18.1254 H   0  0  0  0  0  0  0  0  0  0  0  0
   14.8423    0.3884   18.3766 H   0  0  0  0  0  0  0  0  0  0  0  0
   15.9310   -1.0271   16.0386 H   0  0  0  0  0  0  0  0  0  0  0  0
   13.2868   -0.6697   16.9670 H   0  0  0  0  0  0  0  0  0  0  0  0
   14.4827   -2.7834   16.1037 H   0  0  0  0  0  0  0  0  0  0  0  0
   14.3607   -2.1176   14.4944 H   0  0  0  0  0  0  0  0  0  0  0  0
   12.3031   -3.1058   14.3741 H   0  0  0  0  0  0  0  0  0  0  0  0
   12.9029   -4.5108   16.3394 H   0  0  0  0  0  0  0  0  0  0  0  0
   12.3481   -3.2405   17.4260 H   0  0  0  0  0  0  0  0  0  0  0  0
   11.1998   -4.0725   16.3560 H   0  0  0  0  0  0  0  0  0  0  0  0
   11.0502    0.4634   14.5880 H   0  0  0  0  0  0  0  0  0  0  0  0
   11.9003   -0.6342   13.5300 H   0  0  0  0  0  0  0  0  0  0  0  0
   11.9915    2.0820   15.4980 H   0  0  0  0  0  0  0  0  0  0  0  0
   13.0613    1.6248   16.7950 H   0  0  0  0  0  0  0  0  0  0  0  0
   14.9681    2.6219   15.6319 H   0  0  0  0  0  0  0  0  0  0  0  0
   13.6671    3.7809   15.7500 H   0  0  0  0  0  0  0  0  0  0  0  0
   13.2360    3.7805   13.4731 H   0  0  0  0  0  0  0  0  0  0  0  0
   14.9478    3.3845   13.4528 H   0  0  0  0  0  0  0  0  0  0  0  0
   14.1172    1.7255   12.0427 H   0  0  0  0  0  0  0  0  0  0  0  0
   12.5550    1.6898   12.8040 H   0  0  0  0  0  0  0  0  0  0  0  0
   15.5490    0.5938   14.9607 H   0  0  0  0  0  0  0  0  0  0  0  0
  1  2  1  0
  2  3  1  0
  3  4  1  0
  4  5  1  0
  5  6  1  0
  5  7  1  0
  7  8  2  0
  7  9  1  0
  9 10  1  0
 10 11  1  0
 11 12  1  0
 12 13  1  0
 13 14  1  0
 14 15  1  0
 15 16  1  0
 10  3  1  0
 15 10  1  0
  1 17  1  0
  1 18  1  0
  1 19  1  0
  2 20  1  0
  3 21  1  0
  4 22  1  0
  4 23  1  0
  5 24  1  0
  6 25  1  0
  6 26  1  0
  6 27  1  0
  9 28  1  0
  9 29  1  0
 11 30  1  0
 11 31  1  0
 12 32  1  0
 12 33  1  0
 13 34  1  0
 13 35  1  0
 14 36  1  0
 14 37  1  0
 16 38  1  0
M  END
>  <Energy>  (783) 
76.599167782571499

>  <compound_id>  (783) 
2078

>  <target_id>  (783) 
1

>  <reference_id>  (783) 
36

>  <inspiration_ids>  (783) 
[36, 120]

>  <energy_score>  (783) 
-57.65922813682528

>  <distance_score>  (783) 
1.8787938108208264

>  <path>  (783) 
/opt/xchem-fragalysis-2/maxwin/BulkDock/SCRATCH/505732/C2078-P36/C2078-P36.minimised.mol

>  <scratch_subdir>  (783) 
/opt/xchem-fragalysis-2/maxwin/BulkDock/SCRATCH/505732/C2078-P36

>  <fragmenstein_runtime>  (783) 
2.103074550628662

>  <fragmenstein_outcome>  (783) 
too moved

>  <fragmenstein_mode>  (783) 
expansion

>  <fragmenstein_error>  (783) 


$$$$
C2078-P120
     RDKit          3D

 38 39  0  0  0  0  0  0  0  0999 V2000
   15.5764   -0.6878   17.9112 C   0  0  0  0  0  0  0  0  0  0  0  0
   15.3672   -0.4462   16.4833 N   0  0  0  0  0  0  0  0  0  0  0  0
   13.9587   -0.7155   16.0923 C   0  0  0  0  0  0  0  0  0  0  0  0
   13.8734   -2.1211   15.4769 C   0  0  0  0  0  0  0  0  0  0  0  0
   12.4203   -2.5670   15.2993 C   0  0  0  0  0  0  0  0  0  0  0  0
   12.1087   -3.6092   16.3535 C   0  0  0  0  0  0  0  0  0  0  0  0
   11.4905   -1.3601   15.3674 C   0  0  0  0  0  0  0  0  0  0  0  0
   10.4311   -1.3511   15.9941 O   0  0  0  0  0  0  0  0  0  0  0  0
   11.9558   -0.1394   14.6052 C   0  0  0  0  0  0  0  0  0  0  0  0
   13.3715    0.3549   15.0659 C   0  0  0  0  0  0  0  0  0  0  0  0
   13.2874    1.7427   15.7785 C   0  0  0  0  0  0  0  0  0  0  0  0
   13.4471    2.9747   14.8793 C   0  0  0  0  0  0  0  0  0  0  0  0
   13.0183    2.6919   13.4622 C   0  0  0  0  0  0  0  0  0  0  0  0
   13.7575    1.4869   12.8865 C   0  0  0  0  0  0  0  0  0  0  0  0
   14.2318    0.4777   13.8480 N   0  0  0  0  0  0  0  0  0  0  0  0
   15.5558    0.9531   14.2336 O   0  0  0  0  0  0  0  0  0  0  0  0
   15.3330   -1.7191   18.1859 H   0  0  0  0  0  0  0  0  0  0  0  0
   16.6280   -0.5113   18.1572 H   0  0  0  0  0  0  0  0  0  0  0  0
   14.9769   -0.0012   18.5177 H   0  0  0  0  0  0  0  0  0  0  0  0
   15.9763   -1.0922   15.9682 H   0  0  0  0  0  0  0  0  0  0  0  0
   13.3348   -0.6757   16.9970 H   0  0  0  0  0  0  0  0  0  0  0  0
   14.4273   -2.8456   16.0887 H   0  0  0  0  0  0  0  0  0  0  0  0
   14.3720   -2.1322   14.4986 H   0  0  0  0  0  0  0  0  0  0  0  0
   12.2753   -3.0100   14.3082 H   0  0  0  0  0  0  0  0  0  0  0  0
   12.7529   -4.4861   16.2546 H   0  0  0  0  0  0  0  0  0  0  0  0
   12.2700   -3.2071   17.3563 H   0  0  0  0  0  0  0  0  0  0  0  0
   11.0800   -3.9424   16.2582 H   0  0  0  0  0  0  0  0  0  0  0  0
   11.1992    0.6463   14.7093 H   0  0  0  0  0  0  0  0  0  0  0  0
   11.9440   -0.4387   13.5504 H   0  0  0  0  0  0  0  0  0  0  0  0
   12.3241    1.8145   16.3007 H   0  0  0  0  0  0  0  0  0  0  0  0
   14.0425    1.8295   16.5694 H   0  0  0  0  0  0  0  0  0  0  0  0
   14.4959    3.2970   14.8857 H   0  0  0  0  0  0  0  0  0  0  0  0
   12.8710    3.8101   15.2937 H   0  0  0  0  0  0  0  0  0  0  0  0
   11.9375    2.5073   13.4407 H   0  0  0  0  0  0  0  0  0  0  0  0
   13.1939    3.5709   12.8315 H   0  0  0  0  0  0  0  0  0  0  0  0
   14.6038    1.8397   12.2813 H   0  0  0  0  0  0  0  0  0  0  0  0
   13.0973    0.9955   12.1614 H   0  0  0  0  0  0  0  0  0  0  0  0
   15.6547    0.7059   15.1806 H   0  0  0  0  0  0  0  0  0  0  0  0
  1  2  1  0
  2  3  1  0
  3  4  1  0
  4  5  1  0
  5  6  1  0
  5  7  1  0
  7  8  2  0
  7  9  1  0
  9 10  1  0
 10 11  1  0
 11 12  1  0
 12 13  1  0
 13 14  1  0
 14 15  1  0
 15 16  1  0
 10  3  1  0
 15 10  1  0
  1 17  1  0
  1 18  1  0
  1 19  1  0
  2 20  1  0
  3 21  1  0
  4 22  1  0
  4 23  1  0
  5 24  1  0
  6 25  1  0
  6 26  1  0
  6 27  1  0
  9 28  1  0
  9 29  1  0
 11 30  1  0
 11 31  1  0
 12 32  1  0
 12 33  1  0
 13 34  1  0
 13 35  1  0
 14 36  1  0
 14 37  1  0
 16 38  1  0
M  END
>  <Energy>  (784) 
74.566139028600531

>  <compound_id>  (784) 
2078

>  <target_id>  (784) 
1

>  <reference_id>  (784) 
120

>  <inspiration_ids>  (784) 
[36, 120]

>  <energy_score>  (784) 
-59.692256890797694

>  <distance_score>  (784) 
1.8702081223487825

>  <path>  (784) 
/opt/xchem-fragalysis-2/maxwin/BulkDock/SCRATCH/505732/C2078-P120/C2078-P120.minimised.mol

>  <scratch_subdir>  (784) 
/opt/xchem-fragalysis-2/maxwin/BulkDock/SCRATCH/505732/C2078-P120

>  <fragmenstein_runtime>  (784) 
1.8131320476531982

>  <fragmenstein_outcome>  (784) 
too moved

>  <fragmenstein_mode>  (784) 
expansion

>  <fragmenstein_error>  (784) 


$$$$
C2090-P37
     RDKit          3D

 65 69  0  0  0  0  0  0  0  0999 V2000
  -13.7224    2.0486   12.9735 C   0  0  0  0  0  0  0  0  0  0  0  0
  -12.9536    2.6768   11.9045 N   0  0  0  0  0  0  0  0  0  0  0  0
  -12.0318    1.8683   11.2387 C   0  0  0  0  0  0  0  0  0  0  0  0
  -12.4148    0.5669   10.8816 C   0  0  0  0  0  0  0  0  0  0  0  0
  -11.5253   -0.3179   10.2947 C   0  0  0  0  0  0  0  0  0  0  0  0
  -10.2018    0.0272   10.1500 C   0  0  0  0  0  0  0  0  0  0  0  0
   -9.8065    1.3219   10.4385 C   0  0  0  0  0  0  0  0  0  0  0  0
  -10.7430    2.2723   10.8594 C   0  0  0  0  0  0  0  0  0  0  0  0
  -10.2399    3.9831   10.6854 S   0  0  0  0  0  0  0  0  0  0  0  0
   -9.4704    4.3085   12.2484 C   0  0  0  0  0  0  0  0  0  0  0  0
  -11.4267    4.8088   10.6479 O   0  0  0  0  0  0  0  0  0  0  0  0
   -9.1795    4.0618    9.5374 N   0  0  0  0  0  0  0  0  0  0  0  0
   -9.5718    3.6383    8.1559 C   0  0  0  0  0  0  0  0  0  0  0  0
   -8.7428    2.4135    7.7049 C   0  0  0  0  0  0  0  0  0  0  0  0
   -9.4855    1.3071    7.3410 N   0  0  0  0  0  0  0  0  0  0  0  0
   -8.9801    0.0485    7.1582 C   0  0  0  0  0  0  0  0  0  0  0  0
   -9.7179   -0.9155    7.0144 O   0  0  0  0  0  0  0  0  0  0  0  0
   -7.5225   -0.1045    7.2418 C   0  0  0  0  0  0  0  0  0  0  0  0
   -7.0027   -1.4063    7.1567 C   0  0  0  0  0  0  0  0  0  0  0  0
   -5.6577   -1.6168    7.3907 C   0  0  0  0  0  0  0  0  0  0  0  0
   -4.8424   -0.5384    7.7014 C   0  0  0  0  0  0  0  0  0  0  0  0
   -5.3726    0.7561    7.7144 C   0  0  0  0  0  0  0  0  0  0  0  0
   -6.7262    1.0251    7.5003 C   0  0  0  0  0  0  0  0  0  0  0  0
   -7.3833    2.3595    7.7073 C   0  0  0  0  0  0  0  0  0  0  0  0
   -6.7398    3.5081    8.1057 N   0  0  0  0  0  0  0  0  0  0  0  0
   -5.3298    4.0623    7.7303 C   0  0  0  0  0  0  0  0  0  0  0  0
   -4.4740    3.5866    7.0868 O   0  0  0  0  0  0  0  0  0  0  0  0
   -5.2129    5.4486    8.3516 C   0  0  0  0  0  0  0  0  0  0  0  0
   -5.3132    6.6155    7.3615 C   0  0  0  0  0  0  0  0  0  0  0  0
   -5.3927    7.9792    8.1436 C   0  0  0  0  0  0  0  0  0  0  0  0
   -6.5858    8.6125    8.5464 C   0  0  0  0  0  0  0  0  0  0  0  0
   -6.1515    9.7229    9.2221 C   0  0  0  0  0  0  0  0  0  0  0  0
   -4.7952    9.7467    9.2396 O   0  0  0  0  0  0  0  0  0  0  0  0
   -4.3085    8.6347    8.5696 N   0  0  0  0  0  0  0  0  0  0  0  0
   -6.3549    6.4942    6.2122 C   0  0  0  0  0  0  0  0  0  0  0  0
   -5.2836    6.0474    5.3016 N   0  0  0  0  0  0  0  0  0  0  0  0
   -4.2753    6.6449    6.2031 C   0  0  0  0  0  0  0  0  0  0  0  0
  -14.4376    1.3144   12.5904 H   0  0  0  0  0  0  0  0  0  0  0  0
  -14.3171    2.8175   13.4733 H   0  0  0  0  0  0  0  0  0  0  0  0
  -13.0714    1.5718   13.7138 H   0  0  0  0  0  0  0  0  0  0  0  0
  -12.6053    3.6026   12.1571 H   0  0  0  0  0  0  0  0  0  0  0  0
  -13.4415    0.2341   11.0104 H   0  0  0  0  0  0  0  0  0  0  0  0
  -11.8697   -1.2775    9.9441 H   0  0  0  0  0  0  0  0  0  0  0  0
   -9.5028   -0.6986    9.7489 H   0  0  0  0  0  0  0  0  0  0  0  0
   -8.7688    1.5918   10.2681 H   0  0  0  0  0  0  0  0  0  0  0  0
   -8.8090    3.4877   12.5062 H   0  0  0  0  0  0  0  0  0  0  0  0
   -8.9176    5.2473   12.1777 H   0  0  0  0  0  0  0  0  0  0  0  0
  -10.2527    4.4057   13.0032 H   0  0  0  0  0  0  0  0  0  0  0  0
  -10.6469    3.4318    8.0947 H   0  0  0  0  0  0  0  0  0  0  0  0
   -9.3782    4.4692    7.4668 H   0  0  0  0  0  0  0  0  0  0  0  0
  -10.4991    1.3293    7.3931 H   0  0  0  0  0  0  0  0  0  0  0  0
   -7.6565   -2.2508    6.9478 H   0  0  0  0  0  0  0  0  0  0  0  0
   -5.2468   -2.6194    7.3173 H   0  0  0  0  0  0  0  0  0  0  0  0
   -3.7868   -0.6913    7.9159 H   0  0  0  0  0  0  0  0  0  0  0  0
   -4.6854    1.5454    7.9539 H   0  0  0  0  0  0  0  0  0  0  0  0
   -7.2648    4.2243    8.6149 H   0  0  0  0  0  0  0  0  0  0  0  0
   -4.2427    5.4772    8.8659 H   0  0  0  0  0  0  0  0  0  0  0  0
   -5.9593    5.5740    9.1435 H   0  0  0  0  0  0  0  0  0  0  0  0
   -7.6088    8.3125    8.3764 H   0  0  0  0  0  0  0  0  0  0  0  0
   -6.6397   10.5436    9.7263 H   0  0  0  0  0  0  0  0  0  0  0  0
   -7.1636    5.7714    6.3555 H   0  0  0  0  0  0  0  0  0  0  0  0
   -6.8109    7.4368    5.8845 H   0  0  0  0  0  0  0  0  0  0  0  0
   -5.1814    5.0311    5.2164 H   0  0  0  0  0  0  0  0  0  0  0  0
   -3.3744    6.0391    6.3443 H   0  0  0  0  0  0  0  0  0  0  0  0
   -3.9593    7.6426    5.8739 H   0  0  0  0  0  0  0  0  0  0  0  0
  1  2  1  0
  2  3  1  0
  3  4  2  0
  4  5  1  0
  5  6  2  0
  6  7  1  0
  7  8  2  0
  8  9  1  0
  9 10  1  0
  9 11  2  0
  9 12  2  0
 12 13  1  0
 13 14  1  0
 14 15  1  0
 15 16  1  0
 16 17  2  0
 16 18  1  0
 18 19  2  0
 19 20  1  0
 20 21  2  0
 21 22  1  0
 22 23  2  0
 23 24  1  0
 24 25  1  0
 25 26  1  0
 26 27  2  0
 26 28  1  0
 28 29  1  0
 29 30  1  0
 30 31  1  0
 31 32  2  0
 32 33  1  0
 33 34  1  0
 29 35  1  0
 35 36  1  0
 36 37  1  0
  8  3  1  0
 24 14  2  0
 37 29  1  0
 23 18  1  0
 34 30  2  0
  1 38  1  0
  1 39  1  0
  1 40  1  0
  2 41  1  0
  4 42  1  0
  5 43  1  0
  6 44  1  0
  7 45  1  0
 10 46  1  0
 10 47  1  0
 10 48  1  0
 13 49  1  0
 13 50  1  0
 15 51  1  0
 19 52  1  0
 20 53  1  0
 21 54  1  0
 22 55  1  0
 25 56  1  0
 28 57  1  0
 28 58  1  0
 31 59  1  0
 32 60  1  0
 35 61  1  0
 35 62  1  0
 36 63  1  0
 37 64  1  0
 37 65  1  0
M  END
>  <Energy>  (785) 
100.02271111465042

>  <compound_id>  (785) 
2090

>  <target_id>  (785) 
1

>  <reference_id>  (785) 
37

>  <inspiration_ids>  (785) 
[37, 91]

>  <energy_score>  (785) 
-64.20075114056044

>  <distance_score>  (785) 
1.1574931400828972

>  <path>  (785) 
/opt/xchem-fragalysis-2/maxwin/BulkDock/SCRATCH/505732/C2090-P37/C2090-P37.minimised.mol

>  <scratch_subdir>  (785) 
/opt/xchem-fragalysis-2/maxwin/BulkDock/SCRATCH/505732/C2090-P37

>  <fragmenstein_runtime>  (785) 
6.4125261306762695

>  <fragmenstein_outcome>  (785) 
too moved

>  <fragmenstein_mode>  (785) 
expansion

>  <fragmenstein_error>  (785) 


$$$$
C2093-P37
     RDKit          3D

 26 27  0  0  0  0  0  0  0  0999 V2000
  -10.1963    3.9157   12.0505 C   0  0  0  0  0  0  0  0  0  0  0  0
  -11.1162    2.9443   12.6191 N   0  0  0  0  0  0  0  0  0  0  0  0
  -11.7302    2.0441   11.8100 C   0  0  0  0  0  0  0  0  0  0  0  0
  -11.2374    1.5026   10.6500 C   0  0  0  0  0  0  0  0  0  0  0  0
  -12.1939    0.6609   10.1369 N   0  0  0  0  0  0  0  0  0  0  0  0
  -13.3165    0.6752   10.9360 C   0  0  0  0  0  0  0  0  0  0  0  0
  -14.5456    0.0148   10.7917 C   0  0  0  0  0  0  0  0  0  0  0  0
  -15.5002    0.1966   11.7945 C   0  0  0  0  0  0  0  0  0  0  0  0
  -16.6827   -0.4736   11.6553 O   0  0  0  0  0  0  0  0  0  0  0  0
  -15.2457    1.0365   12.8743 C   0  0  0  0  0  0  0  0  0  0  0  0
  -16.2850    1.3257   13.8900 C   0  0  0  0  0  0  0  0  0  0  0  0
  -16.6669    2.7122   13.9235 N   0  0  0  0  0  0  0  0  0  0  0  0
  -16.6377    0.4029   14.5653 O   0  0  0  0  0  0  0  0  0  0  0  0
  -14.0085    1.6747   13.0119 C   0  0  0  0  0  0  0  0  0  0  0  0
  -13.0297    1.5063   12.0190 C   0  0  0  0  0  0  0  0  0  0  0  0
  -10.7153    4.5840   11.3558 H   0  0  0  0  0  0  0  0  0  0  0  0
   -9.3697    3.4253   11.5311 H   0  0  0  0  0  0  0  0  0  0  0  0
   -9.7693    4.5251   12.8531 H   0  0  0  0  0  0  0  0  0  0  0  0
  -11.7082    3.3655   13.3485 H   0  0  0  0  0  0  0  0  0  0  0  0
  -10.2928    1.6269   10.1395 H   0  0  0  0  0  0  0  0  0  0  0  0
  -12.0957    0.1122    9.2922 H   0  0  0  0  0  0  0  0  0  0  0  0
  -14.7479   -0.6280    9.9403 H   0  0  0  0  0  0  0  0  0  0  0  0
  -17.0177   -0.6946   12.5492 H   0  0  0  0  0  0  0  0  0  0  0  0
  -16.0657    3.2459   13.2610 H   0  0  0  0  0  0  0  0  0  0  0  0
  -16.2423    3.2009   13.1071 H   0  0  0  0  0  0  0  0  0  0  0  0
  -13.7959    2.2943   13.8720 H   0  0  0  0  0  0  0  0  0  0  0  0
  1  2  1  0
  2  3  1  0
  3  4  2  0
  4  5  1  0
  5  6  1  0
  6  7  2  0
  7  8  1  0
  8  9  1  0
  8 10  2  0
 10 11  1  0
 11 12  1  0
 11 13  2  0
 10 14  1  0
 14 15  2  0
 15  3  1  0
 15  6  1  0
  1 16  1  0
  1 17  1  0
  1 18  1  0
  2 19  1  0
  4 20  1  0
  5 21  1  0
  7 22  1  0
  9 23  1  0
 12 24  1  0
 12 25  1  0
 14 26  1  0
M  END
>  <Energy>  (786) 
167.09027233609916

>  <compound_id>  (786) 
2093

>  <target_id>  (786) 
1

>  <reference_id>  (786) 
37

>  <inspiration_ids>  (786) 
[37, 100]

>  <energy_score>  (786) 
142.86050392742885

>  <distance_score>  (786) 
1.846485174743592

>  <path>  (786) 
/opt/xchem-fragalysis-2/maxwin/BulkDock/SCRATCH/505732/C2093-P37/C2093-P37.minimised.mol

>  <scratch_subdir>  (786) 
/opt/xchem-fragalysis-2/maxwin/BulkDock/SCRATCH/505732/C2093-P37

>  <fragmenstein_runtime>  (786) 
3.1034629344940186

>  <fragmenstein_outcome>  (786) 
too moved

>  <fragmenstein_mode>  (786) 
expansion

>  <fragmenstein_error>  (786) 


$$$$
C2093-P100
     RDKit          3D

 26 27  0  0  0  0  0  0  0  0999 V2000
  -10.4636    4.7472   12.4691 C   0  0  0  0  0  0  0  0  0  0  0  0
  -11.2018    3.5564   12.8523 N   0  0  0  0  0  0  0  0  0  0  0  0
  -11.5878    2.6667   11.9061 C   0  0  0  0  0  0  0  0  0  0  0  0
  -10.9230    2.4011   10.7353 C   0  0  0  0  0  0  0  0  0  0  0  0
  -11.6261    1.4379   10.0648 N   0  0  0  0  0  0  0  0  0  0  0  0
  -12.7536    1.0910   10.7757 C   0  0  0  0  0  0  0  0  0  0  0  0
  -13.7613    0.1769   10.4646 C   0  0  0  0  0  0  0  0  0  0  0  0
  -14.7967    0.0213   11.3974 C   0  0  0  0  0  0  0  0  0  0  0  0
  -15.7684   -0.9124   11.1079 O   0  0  0  0  0  0  0  0  0  0  0  0
  -14.8521    0.7447   12.6017 C   0  0  0  0  0  0  0  0  0  0  0  0
  -15.9468    0.6015   13.6655 C   0  0  0  0  0  0  0  0  0  0  0  0
  -16.9250   -0.4217   13.3926 N   0  0  0  0  0  0  0  0  0  0  0  0
  -15.8410    1.3509   14.5963 O   0  0  0  0  0  0  0  0  0  0  0  0
  -13.8106    1.6583   12.8684 C   0  0  0  0  0  0  0  0  0  0  0  0
  -12.7488    1.8397   11.9521 C   0  0  0  0  0  0  0  0  0  0  0  0
  -10.2928    5.3708   13.3522 H   0  0  0  0  0  0  0  0  0  0  0  0
  -11.0253    5.3425   11.7417 H   0  0  0  0  0  0  0  0  0  0  0  0
   -9.4837    4.4930   12.0535 H   0  0  0  0  0  0  0  0  0  0  0  0
  -11.8881    3.7513   13.5992 H   0  0  0  0  0  0  0  0  0  0  0  0
  -10.0044    2.7952   10.3240 H   0  0  0  0  0  0  0  0  0  0  0  0
  -11.3577    1.0389    9.1757 H   0  0  0  0  0  0  0  0  0  0  0  0
  -13.7258   -0.3887    9.5388 H   0  0  0  0  0  0  0  0  0  0  0  0
  -15.4866   -1.3890   10.2905 H   0  0  0  0  0  0  0  0  0  0  0  0
  -16.6322   -0.9537   12.5432 H   0  0  0  0  0  0  0  0  0  0  0  0
  -16.7682   -0.7930   12.4299 H   0  0  0  0  0  0  0  0  0  0  0  0
  -13.8072    2.2397   13.7869 H   0  0  0  0  0  0  0  0  0  0  0  0
  1  2  1  0
  2  3  1  0
  3  4  2  0
  4  5  1  0
  5  6  1  0
  6  7  2  0
  7  8  1  0
  8  9  1  0
  8 10  2  0
 10 11  1  0
 11 12  1  0
 11 13  2  0
 10 14  1  0
 14 15  2  0
 15  3  1  0
 15  6  1  0
  1 16  1  0
  1 17  1  0
  1 18  1  0
  2 19  1  0
  4 20  1  0
  5 21  1  0
  7 22  1  0
  9 23  1  0
 12 24  1  0
 12 25  1  0
 14 26  1  0
M  END
>  <Energy>  (787) 
160.34164839736167

>  <compound_id>  (787) 
2093

>  <target_id>  (787) 
1

>  <reference_id>  (787) 
100

>  <inspiration_ids>  (787) 
[37, 100]

>  <energy_score>  (787) 
136.11187998869192

>  <distance_score>  (787) 
1.7498975041399272

>  <path>  (787) 
/opt/xchem-fragalysis-2/maxwin/BulkDock/SCRATCH/505732/C2093-P100/C2093-P100.minimised.mol

>  <scratch_subdir>  (787) 
/opt/xchem-fragalysis-2/maxwin/BulkDock/SCRATCH/505732/C2093-P100

>  <fragmenstein_runtime>  (787) 
2.575143337249756

>  <fragmenstein_outcome>  (787) 
too moved

>  <fragmenstein_mode>  (787) 
expansion

>  <fragmenstein_error>  (787) 


$$$$
C2095-P37
     RDKit          3D

 43 46  0  0  0  0  0  0  0  0999 V2000
  -11.3562    2.8287   12.3940 N   0  0  0  0  0  0  0  0  0  0  0  0
  -11.3751    1.4368   11.9725 C   0  0  0  0  0  0  0  0  0  0  0  0
  -12.5086    1.1734   11.0131 C   0  0  0  0  0  0  0  0  0  0  0  0
  -13.7296    0.6816   11.6688 C   0  0  0  0  0  0  0  0  0  0  0  0
  -14.8144    0.4037   10.9359 C   0  0  0  0  0  0  0  0  0  0  0  0
  -14.7687    0.6289    9.5720 N   0  0  0  0  0  0  0  0  0  0  0  0
  -15.7572    0.4557    8.6372 C   0  0  0  0  0  0  0  0  0  0  0  0
  -15.2201    0.8939    7.4523 C   0  0  0  0  0  0  0  0  0  0  0  0
  -13.9294    1.3171    7.6246 N   0  0  0  0  0  0  0  0  0  0  0  0
  -13.6582    1.1264    8.9056 C   0  0  0  0  0  0  0  0  0  0  0  0
  -12.4414    1.3586    9.6574 C   0  0  0  0  0  0  0  0  0  0  0  0
  -11.1570    1.8502    8.9708 C   0  0  0  0  0  0  0  0  0  0  0  0
  -11.0501    1.3513    7.5873 N   0  0  0  0  0  0  0  0  0  0  0  0
  -10.5471    0.1076    7.3759 C   0  0  0  0  0  0  0  0  0  0  0  0
  -11.3069   -0.9641    6.9849 C   0  0  0  0  0  0  0  0  0  0  0  0
  -10.4671   -2.0318    6.8213 N   0  0  0  0  0  0  0  0  0  0  0  0
   -9.1595   -1.6440    7.0206 C   0  0  0  0  0  0  0  0  0  0  0  0
   -7.9772   -2.3826    6.9004 C   0  0  0  0  0  0  0  0  0  0  0  0
   -6.7768   -1.6986    7.0984 C   0  0  0  0  0  0  0  0  0  0  0  0
   -6.7729   -0.3371    7.4095 C   0  0  0  0  0  0  0  0  0  0  0  0
   -5.4694    0.3781    7.4700 C   0  0  0  0  0  0  0  0  0  0  0  0
   -5.4163    1.5279    6.5965 N   0  0  0  0  0  0  0  0  0  0  0  0
   -4.6483   -0.0747    8.2137 O   0  0  0  0  0  0  0  0  0  0  0  0
   -7.9665    0.3709    7.6061 C   0  0  0  0  0  0  0  0  0  0  0  0
   -9.1850   -0.2944    7.3838 C   0  0  0  0  0  0  0  0  0  0  0  0
  -10.5534    2.9688   13.0077 H   0  0  0  0  0  0  0  0  0  0  0  0
  -12.1412    3.0118   13.0323 H   0  0  0  0  0  0  0  0  0  0  0  0
  -11.4330    0.7815   12.8499 H   0  0  0  0  0  0  0  0  0  0  0  0
  -10.4189    1.2067   11.5022 H   0  0  0  0  0  0  0  0  0  0  0  0
  -13.7335    0.5474   12.7461 H   0  0  0  0  0  0  0  0  0  0  0  0
  -15.7383    0.0295   11.3559 H   0  0  0  0  0  0  0  0  0  0  0  0
  -16.7286    0.0634    8.8955 H   0  0  0  0  0  0  0  0  0  0  0  0
  -15.6951    0.9336    6.4810 H   0  0  0  0  0  0  0  0  0  0  0  0
  -10.2469    1.5919    9.5170 H   0  0  0  0  0  0  0  0  0  0  0  0
  -11.2026    2.9447    8.9200 H   0  0  0  0  0  0  0  0  0  0  0  0
  -11.9804    1.4832    7.1673 H   0  0  0  0  0  0  0  0  0  0  0  0
  -12.3702   -1.0723    6.8266 H   0  0  0  0  0  0  0  0  0  0  0  0
  -10.7586   -2.9629    6.5555 H   0  0  0  0  0  0  0  0  0  0  0  0
   -7.9899   -3.4368    6.6406 H   0  0  0  0  0  0  0  0  0  0  0  0
   -5.8380   -2.2378    6.9996 H   0  0  0  0  0  0  0  0  0  0  0  0
   -6.3589    1.6861    6.1863 H   0  0  0  0  0  0  0  0  0  0  0  0
   -6.2764    1.5487    6.0101 H   0  0  0  0  0  0  0  0  0  0  0  0
   -7.9744    1.4173    7.8940 H   0  0  0  0  0  0  0  0  0  0  0  0
  1  2  1  0
  2  3  1  0
  3  4  1  0
  4  5  2  0
  5  6  1  0
  6  7  1  0
  7  8  2  0
  8  9  1  0
  9 10  2  0
 10 11  1  0
 11 12  1  0
 12 13  1  0
 13 14  1  0
 14 15  2  0
 15 16  1  0
 16 17  1  0
 17 18  2  0
 18 19  1  0
 19 20  2  0
 20 21  1  0
 21 22  1  0
 21 23  2  0
 20 24  1  0
 24 25  2  0
 11  3  2  0
 25 14  1  0
 10  6  1  0
 25 17  1  0
  1 26  1  0
  1 27  1  0
  2 28  1  0
  2 29  1  0
  4 30  1  0
  5 31  1  0
  7 32  1  0
  8 33  1  0
 12 34  1  0
 12 35  1  0
 13 36  1  0
 15 37  1  0
 16 38  1  0
 18 39  1  0
 19 40  1  0
 22 41  1  0
 22 42  1  0
 24 43  1  0
M  END
>  <Energy>  (788) 
186.3307376343746

>  <compound_id>  (788) 
2095

>  <target_id>  (788) 
1

>  <reference_id>  (788) 
37

>  <inspiration_ids>  (788) 
[37, 127]

>  <energy_score>  (788) 
137.50695470317697

>  <distance_score>  (788) 
2.160728824213435

>  <path>  (788) 
/opt/xchem-fragalysis-2/maxwin/BulkDock/SCRATCH/505732/C2095-P37/C2095-P37.minimised.mol

>  <scratch_subdir>  (788) 
/opt/xchem-fragalysis-2/maxwin/BulkDock/SCRATCH/505732/C2095-P37

>  <fragmenstein_runtime>  (788) 
22.16023063659668

>  <fragmenstein_outcome>  (788) 
too moved

>  <fragmenstein_mode>  (788) 
expansion

>  <fragmenstein_error>  (788) 


$$$$
C2095-P127
     RDKit          3D

 43 46  0  0  0  0  0  0  0  0999 V2000
  -12.0143    2.8641   11.7155 N   0  0  0  0  0  0  0  0  0  0  0  0
  -11.7404    1.4848   11.3253 C   0  0  0  0  0  0  0  0  0  0  0  0
  -12.6162    1.0491   10.1766 C   0  0  0  0  0  0  0  0  0  0  0  0
  -14.0139    0.8003   10.5684 C   0  0  0  0  0  0  0  0  0  0  0  0
  -14.8990    0.3884    9.6535 C   0  0  0  0  0  0  0  0  0  0  0  0
  -14.4764    0.2256    8.3463 N   0  0  0  0  0  0  0  0  0  0  0  0
  -15.2065   -0.1429    7.2453 C   0  0  0  0  0  0  0  0  0  0  0  0
  -14.3234   -0.1094    6.1949 C   0  0  0  0  0  0  0  0  0  0  0  0
  -13.0777    0.2775    6.6120 N   0  0  0  0  0  0  0  0  0  0  0  0
  -13.1748    0.4476    7.9182 C   0  0  0  0  0  0  0  0  0  0  0  0
  -12.1819    0.8274    8.8975 C   0  0  0  0  0  0  0  0  0  0  0  0
  -10.7207    0.9789    8.4689 C   0  0  0  0  0  0  0  0  0  0  0  0
  -10.0251   -0.2844    8.7020 N   0  0  0  0  0  0  0  0  0  0  0  0
   -9.0266   -0.7308    7.8964 C   0  0  0  0  0  0  0  0  0  0  0  0
   -8.8775   -2.0721    7.6430 C   0  0  0  0  0  0  0  0  0  0  0  0
   -7.8266   -2.2380    6.7926 N   0  0  0  0  0  0  0  0  0  0  0  0
   -7.2590   -1.0193    6.5036 C   0  0  0  0  0  0  0  0  0  0  0  0
   -6.1576   -0.7284    5.6913 C   0  0  0  0  0  0  0  0  0  0  0  0
   -5.8123    0.6140    5.5314 C   0  0  0  0  0  0  0  0  0  0  0  0
   -6.5357    1.6219    6.1752 C   0  0  0  0  0  0  0  0  0  0  0  0
   -6.1789    3.0474    5.8649 C   0  0  0  0  0  0  0  0  0  0  0  0
   -7.3252    3.8549    5.5207 N   0  0  0  0  0  0  0  0  0  0  0  0
   -5.0143    3.3272    5.9188 O   0  0  0  0  0  0  0  0  0  0  0  0
   -7.5939    1.3042    7.0496 C   0  0  0  0  0  0  0  0  0  0  0  0
   -7.9941   -0.0427    7.1900 C   0  0  0  0  0  0  0  0  0  0  0  0
  -11.3400    3.1425   12.4316 H   0  0  0  0  0  0  0  0  0  0  0  0
  -12.9164    2.9163   12.1848 H   0  0  0  0  0  0  0  0  0  0  0  0
  -11.9015    0.8224   12.1839 H   0  0  0  0  0  0  0  0  0  0  0  0
  -10.6825    1.4079   11.0679 H   0  0  0  0  0  0  0  0  0  0  0  0
  -14.3096    0.9454   11.6026 H   0  0  0  0  0  0  0  0  0  0  0  0
  -15.9367    0.1829    9.8783 H   0  0  0  0  0  0  0  0  0  0  0  0
  -16.2531   -0.3950    7.3114 H   0  0  0  0  0  0  0  0  0  0  0  0
  -14.5155   -0.3392    5.1546 H   0  0  0  0  0  0  0  0  0  0  0  0
  -10.2222    1.7881    9.0119 H   0  0  0  0  0  0  0  0  0  0  0  0
  -10.6865    1.2577    7.4078 H   0  0  0  0  0  0  0  0  0  0  0  0
  -10.6769   -1.0246    8.9839 H   0  0  0  0  0  0  0  0  0  0  0  0
   -9.4393   -2.9304    7.9808 H   0  0  0  0  0  0  0  0  0  0  0  0
   -7.5141   -3.1277    6.4268 H   0  0  0  0  0  0  0  0  0  0  0  0
   -5.6043   -1.5124    5.1842 H   0  0  0  0  0  0  0  0  0  0  0  0
   -4.9787    0.8771    4.8822 H   0  0  0  0  0  0  0  0  0  0  0  0
   -8.1888    3.3079    5.6954 H   0  0  0  0  0  0  0  0  0  0  0  0
   -8.1645    3.2458    5.4672 H   0  0  0  0  0  0  0  0  0  0  0  0
   -8.1084    2.0740    7.6155 H   0  0  0  0  0  0  0  0  0  0  0  0
  1  2  1  0
  2  3  1  0
  3  4  1  0
  4  5  2  0
  5  6  1  0
  6  7  1  0
  7  8  2  0
  8  9  1  0
  9 10  2  0
 10 11  1  0
 11 12  1  0
 12 13  1  0
 13 14  1  0
 14 15  2  0
 15 16  1  0
 16 17  1  0
 17 18  2  0
 18 19  1  0
 19 20  2  0
 20 21  1  0
 21 22  1  0
 21 23  2  0
 20 24  1  0
 24 25  2  0
 11  3  2  0
 25 14  1  0
 10  6  1  0
 25 17  1  0
  1 26  1  0
  1 27  1  0
  2 28  1  0
  2 29  1  0
  4 30  1  0
  5 31  1  0
  7 32  1  0
  8 33  1  0
 12 34  1  0
 12 35  1  0
 13 36  1  0
 15 37  1  0
 16 38  1  0
 18 39  1  0
 19 40  1  0
 22 41  1  0
 22 42  1  0
 24 43  1  0
M  END
>  <Energy>  (789) 
184.90099924598323

>  <compound_id>  (789) 
2095

>  <target_id>  (789) 
1

>  <reference_id>  (789) 
127

>  <inspiration_ids>  (789) 
[37, 127]

>  <energy_score>  (789) 
136.07721631478552

>  <distance_score>  (789) 
3.004396647296416

>  <path>  (789) 
/opt/xchem-fragalysis-2/maxwin/BulkDock/SCRATCH/505732/C2095-P127/C2095-P127.minimised.mol

>  <scratch_subdir>  (789) 
/opt/xchem-fragalysis-2/maxwin/BulkDock/SCRATCH/505732/C2095-P127

>  <fragmenstein_runtime>  (789) 
24.27708888053894

>  <fragmenstein_outcome>  (789) 
too moved

>  <fragmenstein_mode>  (789) 
expansion

>  <fragmenstein_error>  (789) 


$$$$
C2096-P37
     RDKit          3D

 46 47  0  0  0  0  0  0  0  0999 V2000
  -13.6749    0.9061   12.5062 C   0  0  0  0  0  0  0  0  0  0  0  0
  -14.3913    0.5349   11.2193 C   0  0  0  0  0  0  0  0  0  0  0  0
  -13.7758    1.1539   10.0601 N   0  0  0  0  0  0  0  0  0  0  0  0
  -14.0562    2.4139    9.6147 C   0  0  0  0  0  0  0  0  0  0  0  0
  -13.2043    2.6876    8.5727 C   0  0  0  0  0  0  0  0  0  0  0  0
  -12.3685    1.5460    8.3685 C   0  0  0  0  0  0  0  0  0  0  0  0
  -11.2198    1.5102    7.3650 C   0  0  0  0  0  0  0  0  0  0  0  0
  -11.7501    1.2211    5.9132 C   0  0  0  0  0  0  0  0  0  0  0  0
  -12.6390    0.0749    5.8646 N   0  0  0  0  0  0  0  0  0  0  0  0
  -11.3639    1.9491    5.0377 O   0  0  0  0  0  0  0  0  0  0  0  0
   -9.9020    0.7358    7.7935 C   0  0  0  0  0  0  0  0  0  0  0  0
   -9.5999    0.9441    9.3292 C   0  0  0  0  0  0  0  0  0  0  0  0
   -9.6093    2.3969    9.8299 C   0  0  0  0  0  0  0  0  0  0  0  0
   -9.6244    2.4140   11.2551 O   0  0  0  0  0  0  0  0  0  0  0  0
   -8.7093    1.3020    6.9546 C   0  0  0  0  0  0  0  0  0  0  0  0
   -7.3951    0.5302    7.1088 C   0  0  0  0  0  0  0  0  0  0  0  0
   -7.5724   -0.9497    6.7961 C   0  0  0  0  0  0  0  0  0  0  0  0
   -8.6976   -1.5596    7.6186 C   0  0  0  0  0  0  0  0  0  0  0  0
  -10.0059   -0.7837    7.4699 C   0  0  0  0  0  0  0  0  0  0  0  0
  -12.8062    0.5894    9.2707 C   0  0  0  0  0  0  0  0  0  0  0  0
  -12.6425    0.5402   12.5017 H   0  0  0  0  0  0  0  0  0  0  0  0
  -14.1901    0.4726   13.3678 H   0  0  0  0  0  0  0  0  0  0  0  0
  -13.6427    1.9921   12.6447 H   0  0  0  0  0  0  0  0  0  0  0  0
  -15.4367    0.8615   11.2526 H   0  0  0  0  0  0  0  0  0  0  0  0
  -14.3871   -0.5480   11.0644 H   0  0  0  0  0  0  0  0  0  0  0  0
  -14.8105    3.0275   10.0901 H   0  0  0  0  0  0  0  0  0  0  0  0
  -13.1581    3.6263    8.0329 H   0  0  0  0  0  0  0  0  0  0  0  0
  -10.9134    2.5690    7.3009 H   0  0  0  0  0  0  0  0  0  0  0  0
  -12.8402   -0.2380    6.8326 H   0  0  0  0  0  0  0  0  0  0  0  0
  -12.6539   -0.3812    6.7965 H   0  0  0  0  0  0  0  0  0  0  0  0
   -8.6258    0.5155    9.5927 H   0  0  0  0  0  0  0  0  0  0  0  0
  -10.2960    0.3549    9.9357 H   0  0  0  0  0  0  0  0  0  0  0  0
   -8.7193    2.9233    9.4769 H   0  0  0  0  0  0  0  0  0  0  0  0
  -10.4785    2.9647    9.5028 H   0  0  0  0  0  0  0  0  0  0  0  0
   -9.5200    3.3460   11.5142 H   0  0  0  0  0  0  0  0  0  0  0  0
   -8.9725    1.2833    5.8896 H   0  0  0  0  0  0  0  0  0  0  0  0
   -8.5334    2.3554    7.2018 H   0  0  0  0  0  0  0  0  0  0  0  0
   -6.9954    0.6535    8.1213 H   0  0  0  0  0  0  0  0  0  0  0  0
   -6.6459    0.9547    6.4300 H   0  0  0  0  0  0  0  0  0  0  0  0
   -6.6365   -1.4849    6.9925 H   0  0  0  0  0  0  0  0  0  0  0  0
   -7.7921   -1.0732    5.7285 H   0  0  0  0  0  0  0  0  0  0  0  0
   -8.8523   -2.6009    7.3126 H   0  0  0  0  0  0  0  0  0  0  0  0
   -8.4025   -1.5825    8.6661 H   0  0  0  0  0  0  0  0  0  0  0  0
  -10.7719   -1.2512    8.0941 H   0  0  0  0  0  0  0  0  0  0  0  0
  -10.3218   -0.9225    6.4303 H   0  0  0  0  0  0  0  0  0  0  0  0
  -12.4561   -0.4141    9.4806 H   0  0  0  0  0  0  0  0  0  0  0  0
  1  2  1  0
  2  3  1  0
  3  4  1  0
  4  5  2  0
  5  6  1  0
  6  7  1  0
  7  8  1  0
  8  9  1  0
  8 10  2  0
  7 11  1  0
 11 12  1  0
 12 13  1  0
 13 14  1  0
 11 15  1  0
 15 16  1  0
 16 17  1  0
 17 18  1  0
 18 19  1  0
  6 20  2  0
 20  3  1  0
 19 11  1  0
  1 21  1  0
  1 22  1  0
  1 23  1  0
  2 24  1  0
  2 25  1  0
  4 26  1  0
  5 27  1  0
  7 28  1  0
  9 29  1  0
  9 30  1  0
 12 31  1  0
 12 32  1  0
 13 33  1  0
 13 34  1  0
 14 35  1  0
 15 36  1  0
 15 37  1  0
 16 38  1  0
 16 39  1  0
 17 40  1  0
 17 41  1  0
 18 42  1  0
 18 43  1  0
 19 44  1  0
 19 45  1  0
 20 46  1  0
M  END
>  <Energy>  (790) 
213.39270792654585

>  <compound_id>  (790) 
2096

>  <target_id>  (790) 
1

>  <reference_id>  (790) 
37

>  <inspiration_ids>  (790) 
[37, 139]

>  <energy_score>  (790) 
127.19354062270213

>  <distance_score>  (790) 
2.283771577314215

>  <path>  (790) 
/opt/xchem-fragalysis-2/maxwin/BulkDock/SCRATCH/505732/C2096-P37/C2096-P37.minimised.mol

>  <scratch_subdir>  (790) 
/opt/xchem-fragalysis-2/maxwin/BulkDock/SCRATCH/505732/C2096-P37

>  <fragmenstein_runtime>  (790) 
38.54756832122803

>  <fragmenstein_outcome>  (790) 
too moved

>  <fragmenstein_mode>  (790) 
expansion

>  <fragmenstein_error>  (790) 


$$$$
C2096-P139
     RDKit          3D

 46 47  0  0  0  0  0  0  0  0999 V2000
  -14.5052    0.8286   12.2399 C   0  0  0  0  0  0  0  0  0  0  0  0
  -15.0742    0.4960   10.8709 C   0  0  0  0  0  0  0  0  0  0  0  0
  -14.3416    1.1559    9.8073 N   0  0  0  0  0  0  0  0  0  0  0  0
  -14.5176    2.4536    9.4158 C   0  0  0  0  0  0  0  0  0  0  0  0
  -13.5643    2.7350    8.4645 C   0  0  0  0  0  0  0  0  0  0  0  0
  -12.7629    1.5650    8.2811 C   0  0  0  0  0  0  0  0  0  0  0  0
  -11.4992    1.4871    7.4358 C   0  0  0  0  0  0  0  0  0  0  0  0
  -11.8377    0.8782    6.0197 C   0  0  0  0  0  0  0  0  0  0  0  0
  -11.3101    1.7239    4.9505 N   0  0  0  0  0  0  0  0  0  0  0  0
  -12.4483   -0.1535    5.9681 O   0  0  0  0  0  0  0  0  0  0  0  0
  -10.2372    0.8517    8.1607 C   0  0  0  0  0  0  0  0  0  0  0  0
  -10.1856    1.3144    9.6727 C   0  0  0  0  0  0  0  0  0  0  0  0
  -10.2765    2.8216    9.9578 C   0  0  0  0  0  0  0  0  0  0  0  0
  -10.3847    3.0395   11.3614 O   0  0  0  0  0  0  0  0  0  0  0  0
   -8.9292    1.3214    7.4417 C   0  0  0  0  0  0  0  0  0  0  0  0
   -7.7312    0.4100    7.7176 C   0  0  0  0  0  0  0  0  0  0  0  0
   -7.9533   -1.0041    7.1865 C   0  0  0  0  0  0  0  0  0  0  0  0
   -9.4299   -1.3652    7.0608 C   0  0  0  0  0  0  0  0  0  0  0  0
  -10.2703   -0.7128    8.1591 C   0  0  0  0  0  0  0  0  0  0  0  0
  -13.3410    0.5864    9.0699 C   0  0  0  0  0  0  0  0  0  0  0  0
  -13.4628    0.5026   12.3234 H   0  0  0  0  0  0  0  0  0  0  0  0
  -15.0863    0.3319   13.0222 H   0  0  0  0  0  0  0  0  0  0  0  0
  -14.5328    1.9067   12.4308 H   0  0  0  0  0  0  0  0  0  0  0  0
  -16.1201    0.8139   10.7979 H   0  0  0  0  0  0  0  0  0  0  0  0
  -15.0388   -0.5829   10.6919 H   0  0  0  0  0  0  0  0  0  0  0  0
  -15.2843    3.0758    9.8574 H   0  0  0  0  0  0  0  0  0  0  0  0
  -13.4291    3.6979    7.9901 H   0  0  0  0  0  0  0  0  0  0  0  0
  -11.2366    2.5442    7.2858 H   0  0  0  0  0  0  0  0  0  0  0  0
  -10.7361    2.4764    5.3671 H   0  0  0  0  0  0  0  0  0  0  0  0
  -10.9400    2.5973    5.3621 H   0  0  0  0  0  0  0  0  0  0  0  0
   -9.2652    0.9359   10.1294 H   0  0  0  0  0  0  0  0  0  0  0  0
  -10.9713    0.8093   10.2478 H   0  0  0  0  0  0  0  0  0  0  0  0
   -9.3954    3.3512    9.5900 H   0  0  0  0  0  0  0  0  0  0  0  0
  -11.1460    3.2881    9.4998 H   0  0  0  0  0  0  0  0  0  0  0  0
  -10.4620    3.9987   11.4967 H   0  0  0  0  0  0  0  0  0  0  0  0
   -9.0740    1.3423    6.3565 H   0  0  0  0  0  0  0  0  0  0  0  0
   -8.6789    2.3489    7.7247 H   0  0  0  0  0  0  0  0  0  0  0  0
   -7.5387    0.3593    8.7937 H   0  0  0  0  0  0  0  0  0  0  0  0
   -6.8268    0.8319    7.2640 H   0  0  0  0  0  0  0  0  0  0  0  0
   -7.4491   -1.7155    7.8517 H   0  0  0  0  0  0  0  0  0  0  0  0
   -7.4773   -1.1143    6.2048 H   0  0  0  0  0  0  0  0  0  0  0  0
   -9.7978   -1.0557    6.0763 H   0  0  0  0  0  0  0  0  0  0  0  0
   -9.5414   -2.4550    7.1003 H   0  0  0  0  0  0  0  0  0  0  0  0
   -9.8934   -1.0860    9.1201 H   0  0  0  0  0  0  0  0  0  0  0  0
  -11.2942   -1.0843    8.0795 H   0  0  0  0  0  0  0  0  0  0  0  0
  -13.0773   -0.4533    9.2166 H   0  0  0  0  0  0  0  0  0  0  0  0
  1  2  1  0
  2  3  1  0
  3  4  1  0
  4  5  2  0
  5  6  1  0
  6  7  1  0
  7  8  1  0
  8  9  1  0
  8 10  2  0
  7 11  1  0
 11 12  1  0
 12 13  1  0
 13 14  1  0
 11 15  1  0
 15 16  1  0
 16 17  1  0
 17 18  1  0
 18 19  1  0
  6 20  2  0
 20  3  1  0
 19 11  1  0
  1 21  1  0
  1 22  1  0
  1 23  1  0
  2 24  1  0
  2 25  1  0
  4 26  1  0
  5 27  1  0
  7 28  1  0
  9 29  1  0
  9 30  1  0
 12 31  1  0
 12 32  1  0
 13 33  1  0
 13 34  1  0
 14 35  1  0
 15 36  1  0
 15 37  1  0
 16 38  1  0
 16 39  1  0
 17 40  1  0
 17 41  1  0
 18 42  1  0
 18 43  1  0
 19 44  1  0
 19 45  1  0
 20 46  1  0
M  END
>  <Energy>  (791) 
227.93438545303897

>  <compound_id>  (791) 
2096

>  <target_id>  (791) 
1

>  <reference_id>  (791) 
139

>  <inspiration_ids>  (791) 
[37, 139]

>  <energy_score>  (791) 
141.7352181491931

>  <distance_score>  (791) 
2.551629773769288

>  <path>  (791) 
/opt/xchem-fragalysis-2/maxwin/BulkDock/SCRATCH/505732/C2096-P139/C2096-P139.minimised.mol

>  <scratch_subdir>  (791) 
/opt/xchem-fragalysis-2/maxwin/BulkDock/SCRATCH/505732/C2096-P139

>  <fragmenstein_runtime>  (791) 
35.35033130645752

>  <fragmenstein_outcome>  (791) 
too moved

>  <fragmenstein_mode>  (791) 
expansion

>  <fragmenstein_error>  (791) 


$$$$
C2108-P38
     RDKit          3D

 27 28  0  0  0  0  0  0  0  0999 V2000
   -9.1741  -25.6389   31.2053 N   0  0  0  0  0  0  0  0  0  0  0  0
  -10.2844  -25.2565   32.0146 C   0  0  0  0  0  0  0  0  0  0  0  0
  -10.4741  -25.3804   33.1887 O   0  0  0  0  0  0  0  0  0  0  0  0
  -11.3488  -24.6152   31.2313 C   0  0  0  0  0  0  0  0  0  0  0  0
  -12.2420  -25.3135   30.4359 C   0  0  0  0  0  0  0  0  0  0  0  0
  -13.3660  -24.6035   29.9622 C   0  0  0  0  0  0  0  0  0  0  0  0
  -13.6123  -23.4469   30.7248 C   0  0  0  0  0  0  0  0  0  0  0  0
  -14.7632  -22.8480   31.1545 N   0  0  0  0  0  0  0  0  0  0  0  0
  -14.5327  -21.9923   32.1806 C   0  0  0  0  0  0  0  0  0  0  0  0
  -15.5602  -21.3727   32.8098 N   0  0  0  0  0  0  0  0  0  0  0  0
  -13.1783  -21.9857   32.3720 C   0  0  0  0  0  0  0  0  0  0  0  0
  -12.4248  -21.0734   33.6125 S   0  0  0  0  0  0  0  0  0  0  0  0
  -12.5785  -22.7942   31.3812 C   0  0  0  0  0  0  0  0  0  0  0  0
  -11.3228  -23.2438   30.9966 C   0  0  0  0  0  0  0  0  0  0  0  0
  -11.0009  -23.2268   29.5600 O   0  0  0  0  0  0  0  0  0  0  0  0
  -11.3772  -22.1119   28.7743 C   0  0  0  0  0  0  0  0  0  0  0  0
  -11.6995  -21.0607   29.5476 F   0  0  0  0  0  0  0  0  0  0  0  0
   -9.4110  -25.4773   30.2106 H   0  0  0  0  0  0  0  0  0  0  0  0
   -9.3101  -25.2659   30.2491 H   0  0  0  0  0  0  0  0  0  0  0  0
  -12.1368  -26.3772   30.2636 H   0  0  0  0  0  0  0  0  0  0  0  0
  -14.1425  -25.0779   29.3794 H   0  0  0  0  0  0  0  0  0  0  0  0
  -15.6870  -23.1793   30.9113 H   0  0  0  0  0  0  0  0  0  0  0  0
  -15.3562  -21.0743   33.7646 H   0  0  0  0  0  0  0  0  0  0  0  0
  -16.4594  -21.8560   32.7868 H   0  0  0  0  0  0  0  0  0  0  0  0
  -11.4370  -20.5502   32.8736 H   0  0  0  0  0  0  0  0  0  0  0  0
  -10.5411  -21.8327   28.1365 H   0  0  0  0  0  0  0  0  0  0  0  0
  -12.2059  -22.4027   28.1336 H   0  0  0  0  0  0  0  0  0  0  0  0
  1  2  1  0
  2  3  2  0
  2  4  1  0
  4  5  2  0
  5  6  1  0
  6  7  2  0
  7  8  1  0
  8  9  1  0
  9 10  1  0
  9 11  2  0
 11 12  1  0
 11 13  1  0
 13 14  2  0
 14 15  1  0
 15 16  1  0
 16 17  1  0
 14  4  1  0
 13  7  1  0
  1 18  1  0
  1 19  1  0
  5 20  1  0
  6 21  1  0
  8 22  1  0
 10 23  1  0
 10 24  1  0
 12 25  1  0
 16 26  1  0
 16 27  1  0
M  END
>  <Energy>  (792) 
291.23696111532587

>  <compound_id>  (792) 
2108

>  <target_id>  (792) 
1

>  <reference_id>  (792) 
38

>  <inspiration_ids>  (792) 
[38, 52]

>  <energy_score>  (792) 
216.06743110449418

>  <distance_score>  (792) 
3.2050625025213044

>  <path>  (792) 
/opt/xchem-fragalysis-2/maxwin/BulkDock/SCRATCH/505732/C2108-P38/C2108-P38.minimised.mol

>  <scratch_subdir>  (792) 
/opt/xchem-fragalysis-2/maxwin/BulkDock/SCRATCH/505732/C2108-P38

>  <fragmenstein_runtime>  (792) 
6.074960231781006

>  <fragmenstein_outcome>  (792) 
too moved

>  <fragmenstein_mode>  (792) 
expansion

>  <fragmenstein_error>  (792) 


$$$$
C2108-P52
     RDKit          3D

 27 28  0  0  0  0  0  0  0  0999 V2000
   -8.6319  -26.3397   32.9067 N   0  0  0  0  0  0  0  0  0  0  0  0
   -9.8748  -25.8175   32.4984 C   0  0  0  0  0  0  0  0  0  0  0  0
  -10.8718  -26.3683   32.1289 O   0  0  0  0  0  0  0  0  0  0  0  0
   -9.9835  -24.3607   32.6474 C   0  0  0  0  0  0  0  0  0  0  0  0
  -10.1278  -23.9238   33.9681 C   0  0  0  0  0  0  0  0  0  0  0  0
  -10.9382  -22.8375   34.2511 C   0  0  0  0  0  0  0  0  0  0  0  0
  -11.5758  -22.2442   33.1697 C   0  0  0  0  0  0  0  0  0  0  0  0
  -12.6300  -21.3679   33.1687 N   0  0  0  0  0  0  0  0  0  0  0  0
  -13.0850  -21.2127   31.8893 C   0  0  0  0  0  0  0  0  0  0  0  0
  -14.3392  -20.7207   31.7172 N   0  0  0  0  0  0  0  0  0  0  0  0
  -12.0940  -21.6838   31.0524 C   0  0  0  0  0  0  0  0  0  0  0  0
  -11.9206  -21.5267   29.3286 S   0  0  0  0  0  0  0  0  0  0  0  0
  -11.2960  -22.5506   31.8376 C   0  0  0  0  0  0  0  0  0  0  0  0
  -10.4428  -23.6310   31.5532 C   0  0  0  0  0  0  0  0  0  0  0  0
  -10.1162  -24.0053   30.2669 O   0  0  0  0  0  0  0  0  0  0  0  0
  -11.1080  -24.8436   29.6724 C   0  0  0  0  0  0  0  0  0  0  0  0
  -11.1364  -24.5300   28.3458 F   0  0  0  0  0  0  0  0  0  0  0  0
   -7.9590  -25.5469   33.0469 H   0  0  0  0  0  0  0  0  0  0  0  0
   -8.0402  -25.5599   33.2714 H   0  0  0  0  0  0  0  0  0  0  0  0
   -9.7783  -24.5384   34.7908 H   0  0  0  0  0  0  0  0  0  0  0  0
  -11.2039  -22.5803   35.2695 H   0  0  0  0  0  0  0  0  0  0  0  0
  -13.1408  -21.0933   33.9943 H   0  0  0  0  0  0  0  0  0  0  0  0
  -14.9827  -20.9293   32.4887 H   0  0  0  0  0  0  0  0  0  0  0  0
  -14.8210  -21.0664   30.8800 H   0  0  0  0  0  0  0  0  0  0  0  0
  -10.7351  -22.1358   29.1745 H   0  0  0  0  0  0  0  0  0  0  0  0
  -10.8086  -25.8903   29.7407 H   0  0  0  0  0  0  0  0  0  0  0  0
  -12.1145  -24.7005   30.0752 H   0  0  0  0  0  0  0  0  0  0  0  0
  1  2  1  0
  2  3  2  0
  2  4  1  0
  4  5  2  0
  5  6  1  0
  6  7  2  0
  7  8  1  0
  8  9  1  0
  9 10  1  0
  9 11  2  0
 11 12  1  0
 11 13  1  0
 13 14  2  0
 14 15  1  0
 15 16  1  0
 16 17  1  0
 14  4  1  0
 13  7  1  0
  1 18  1  0
  1 19  1  0
  5 20  1  0
  6 21  1  0
  8 22  1  0
 10 23  1  0
 10 24  1  0
 12 25  1  0
 16 26  1  0
 16 27  1  0
M  END
>  <Energy>  (793) 
226.58259461325525

>  <compound_id>  (793) 
2108

>  <target_id>  (793) 
1

>  <reference_id>  (793) 
52

>  <inspiration_ids>  (793) 
[38, 52]

>  <energy_score>  (793) 
151.41306460242353

>  <distance_score>  (793) 
1.4109909660655682

>  <path>  (793) 
/opt/xchem-fragalysis-2/maxwin/BulkDock/SCRATCH/505732/C2108-P52/C2108-P52.minimised.mol

>  <scratch_subdir>  (793) 
/opt/xchem-fragalysis-2/maxwin/BulkDock/SCRATCH/505732/C2108-P52

>  <fragmenstein_runtime>  (793) 
5.508131265640259

>  <fragmenstein_outcome>  (793) 
too moved

>  <fragmenstein_mode>  (793) 
expansion

>  <fragmenstein_error>  (793) 


$$$$
C2110-P38
     RDKit          3D

 25 26  0  0  0  0  0  0  0  0999 V2000
  -12.2908  -21.7594   33.3312 N   0  0  0  0  0  0  0  0  0  0  0  0
  -12.5409  -23.1672   33.4704 C   0  0  0  0  0  0  0  0  0  0  0  0
  -12.5066  -23.6407   32.1484 N   0  0  0  0  0  0  0  0  0  0  0  0
  -13.2675  -23.1850   30.9176 C   0  0  0  0  0  0  0  0  0  0  0  0
  -13.9929  -22.2942   30.7698 O   0  0  0  0  0  0  0  0  0  0  0  0
  -12.9615  -24.0770   29.7821 C   0  0  0  0  0  0  0  0  0  0  0  0
  -13.9898  -24.7939   29.1996 C   0  0  0  0  0  0  0  0  0  0  0  0
  -13.8240  -25.6611   28.1289 C   0  0  0  0  0  0  0  0  0  0  0  0
  -12.5971  -25.5797   27.5199 C   0  0  0  0  0  0  0  0  0  0  0  0
  -12.1903  -26.1345   26.3407 N   0  0  0  0  0  0  0  0  0  0  0  0
  -11.1260  -25.4154   25.9060 C   0  0  0  0  0  0  0  0  0  0  0  0
  -10.6452  -24.6719   26.9569 C   0  0  0  0  0  0  0  0  0  0  0  0
  -11.5778  -24.7569   27.9922 C   0  0  0  0  0  0  0  0  0  0  0  0
  -11.7087  -24.0785   29.2060 C   0  0  0  0  0  0  0  0  0  0  0  0
  -13.0379  -21.4049   32.7369 H   0  0  0  0  0  0  0  0  0  0  0  0
  -12.3938  -21.3066   34.2345 H   0  0  0  0  0  0  0  0  0  0  0  0
  -13.5376  -23.3457   33.8778 H   0  0  0  0  0  0  0  0  0  0  0  0
  -11.7905  -23.6953   34.0485 H   0  0  0  0  0  0  0  0  0  0  0  0
  -12.0265  -24.5075   31.9456 H   0  0  0  0  0  0  0  0  0  0  0  0
  -14.9847  -24.6333   29.5705 H   0  0  0  0  0  0  0  0  0  0  0  0
  -14.6513  -26.2151   27.7034 H   0  0  0  0  0  0  0  0  0  0  0  0
  -12.6993  -26.8294   25.7995 H   0  0  0  0  0  0  0  0  0  0  0  0
  -10.7801  -25.5408   24.8981 H   0  0  0  0  0  0  0  0  0  0  0  0
   -9.7763  -24.0382   26.9498 H   0  0  0  0  0  0  0  0  0  0  0  0
  -10.9590  -23.3990   29.5662 H   0  0  0  0  0  0  0  0  0  0  0  0
  1  2  1  0
  2  3  1  0
  3  4  1  0
  4  5  2  0
  4  6  1  0
  6  7  2  0
  7  8  1  0
  8  9  2  0
  9 10  1  0
 10 11  1  0
 11 12  2  0
 12 13  1  0
 13 14  2  0
 14  6  1  0
 13  9  1  0
  1 15  1  0
  1 16  1  0
  2 17  1  0
  2 18  1  0
  3 19  1  0
  7 20  1  0
  8 21  1  0
 10 22  1  0
 11 23  1  0
 12 24  1  0
 14 25  1  0
M  END
>  <Energy>  (794) 
-20.693620971906153

>  <compound_id>  (794) 
2110

>  <target_id>  (794) 
1

>  <reference_id>  (794) 
38

>  <inspiration_ids>  (794) 
[38, 64]

>  <energy_score>  (794) 
14.871190942167004

>  <distance_score>  (794) 
1.8369461562667582

>  <path>  (794) 
/opt/xchem-fragalysis-2/maxwin/BulkDock/SCRATCH/505732/C2110-P38/C2110-P38.minimised.mol

>  <scratch_subdir>  (794) 
/opt/xchem-fragalysis-2/maxwin/BulkDock/SCRATCH/505732/C2110-P38

>  <fragmenstein_runtime>  (794) 
3.574551582336426

>  <fragmenstein_outcome>  (794) 
too moved

>  <fragmenstein_mode>  (794) 
expansion

>  <fragmenstein_error>  (794) 


$$$$
C2110-P64
     RDKit          3D

 25 26  0  0  0  0  0  0  0  0999 V2000
  -12.8175  -21.2195   33.5124 N   0  0  0  0  0  0  0  0  0  0  0  0
  -12.8123  -22.6555   33.6483 C   0  0  0  0  0  0  0  0  0  0  0  0
  -12.3870  -23.0518   32.3796 N   0  0  0  0  0  0  0  0  0  0  0  0
  -11.0470  -23.6232   31.9137 C   0  0  0  0  0  0  0  0  0  0  0  0
  -10.0549  -23.7854   32.4946 O   0  0  0  0  0  0  0  0  0  0  0  0
  -11.1253  -23.8886   30.4484 C   0  0  0  0  0  0  0  0  0  0  0  0
  -11.6342  -22.8665   29.6310 C   0  0  0  0  0  0  0  0  0  0  0  0
  -11.6848  -23.0166   28.2561 C   0  0  0  0  0  0  0  0  0  0  0  0
  -11.3748  -24.2581   27.7382 C   0  0  0  0  0  0  0  0  0  0  0  0
  -11.5360  -24.7312   26.4598 N   0  0  0  0  0  0  0  0  0  0  0  0
  -11.1800  -26.0429   26.4229 C   0  0  0  0  0  0  0  0  0  0  0  0
  -10.6422  -26.3451   27.6517 C   0  0  0  0  0  0  0  0  0  0  0  0
  -10.8080  -25.2550   28.5169 C   0  0  0  0  0  0  0  0  0  0  0  0
  -10.5857  -25.0504   29.8908 C   0  0  0  0  0  0  0  0  0  0  0  0
  -12.6468  -20.8259   34.4376 H   0  0  0  0  0  0  0  0  0  0  0  0
  -11.9478  -21.0173   33.0200 H   0  0  0  0  0  0  0  0  0  0  0  0
  -13.8159  -23.0457   33.8324 H   0  0  0  0  0  0  0  0  0  0  0  0
  -12.1190  -23.0189   34.3952 H   0  0  0  0  0  0  0  0  0  0  0  0
  -13.0647  -23.1308   31.6339 H   0  0  0  0  0  0  0  0  0  0  0  0
  -11.8975  -21.9071   30.0671 H   0  0  0  0  0  0  0  0  0  0  0  0
  -11.9429  -22.1972   27.6138 H   0  0  0  0  0  0  0  0  0  0  0  0
  -11.9311  -24.1961   25.6974 H   0  0  0  0  0  0  0  0  0  0  0  0
  -11.2908  -26.6392   25.5258 H   0  0  0  0  0  0  0  0  0  0  0  0
  -10.2258  -27.2813   27.9511 H   0  0  0  0  0  0  0  0  0  0  0  0
  -10.1437  -25.8129   30.5258 H   0  0  0  0  0  0  0  0  0  0  0  0
  1  2  1  0
  2  3  1  0
  3  4  1  0
  4  5  2  0
  4  6  1  0
  6  7  2  0
  7  8  1  0
  8  9  2  0
  9 10  1  0
 10 11  1  0
 11 12  2  0
 12 13  1  0
 13 14  2  0
 14  6  1  0
 13  9  1  0
  1 15  1  0
  1 16  1  0
  2 17  1  0
  2 18  1  0
  3 19  1  0
  7 20  1  0
  8 21  1  0
 10 22  1  0
 11 23  1  0
 12 24  1  0
 14 25  1  0
M  END
>  <Energy>  (795) 
-27.952448322558663

>  <compound_id>  (795) 
2110

>  <target_id>  (795) 
1

>  <reference_id>  (795) 
64

>  <inspiration_ids>  (795) 
[38, 64]

>  <energy_score>  (795) 
7.612363591514878

>  <distance_score>  (795) 
1.5728505171444673

>  <path>  (795) 
/opt/xchem-fragalysis-2/maxwin/BulkDock/SCRATCH/505732/C2110-P64/C2110-P64.minimised.mol

>  <scratch_subdir>  (795) 
/opt/xchem-fragalysis-2/maxwin/BulkDock/SCRATCH/505732/C2110-P64

>  <fragmenstein_runtime>  (795) 
3.551499843597412

>  <fragmenstein_outcome>  (795) 
too moved

>  <fragmenstein_mode>  (795) 
expansion

>  <fragmenstein_error>  (795) 


$$$$
C2111-P38
     RDKit          3D

 29 31  0  0  0  0  0  0  0  0999 V2000
  -14.2005  -24.7919   29.2108 O   0  0  0  0  0  0  0  0  0  0  0  0
  -12.9171  -24.2639   28.8687 C   0  0  0  0  0  0  0  0  0  0  0  0
  -12.1383  -23.8091   30.1117 C   0  0  0  0  0  0  0  0  0  0  0  0
  -11.2446  -24.8822   30.5703 C   0  0  0  0  0  0  0  0  0  0  0  0
  -10.4978  -24.8036   31.7058 N   0  0  0  0  0  0  0  0  0  0  0  0
   -9.6619  -25.8761   31.7357 C   0  0  0  0  0  0  0  0  0  0  0  0
   -9.9914  -26.7117   30.6927 C   0  0  0  0  0  0  0  0  0  0  0  0
  -10.9801  -26.0696   29.9291 C   0  0  0  0  0  0  0  0  0  0  0  0
  -11.6623  -26.4820   28.6744 C   0  0  0  0  0  0  0  0  0  0  0  0
  -12.2272  -25.2584   27.9118 C   0  0  0  0  0  0  0  0  0  0  0  0
  -13.1993  -25.7468   26.8265 C   0  0  0  0  0  0  0  0  0  0  0  0
  -12.3666  -25.8972   25.6354 N   0  0  0  0  0  0  0  0  0  0  0  0
  -11.5026  -24.7593   25.7059 N   0  0  0  0  0  0  0  0  0  0  0  0
  -11.1185  -24.5761   27.1042 C   0  0  0  0  0  0  0  0  0  0  0  0
  -14.4722  -24.4464   30.0876 H   0  0  0  0  0  0  0  0  0  0  0  0
  -13.0790  -23.3516   28.3054 H   0  0  0  0  0  0  0  0  0  0  0  0
  -12.8136  -23.4981   30.9165 H   0  0  0  0  0  0  0  0  0  0  0  0
  -11.5266  -22.9384   29.8465 H   0  0  0  0  0  0  0  0  0  0  0  0
  -10.4950  -24.0339   32.3634 H   0  0  0  0  0  0  0  0  0  0  0  0
   -8.9143  -25.9707   32.5075 H   0  0  0  0  0  0  0  0  0  0  0  0
   -9.5106  -27.6576   30.5141 H   0  0  0  0  0  0  0  0  0  0  0  0
  -10.9763  -27.0492   28.0383 H   0  0  0  0  0  0  0  0  0  0  0  0
  -12.4758  -27.1653   28.9500 H   0  0  0  0  0  0  0  0  0  0  0  0
  -13.9790  -25.0175   26.5925 H   0  0  0  0  0  0  0  0  0  0  0  0
  -13.7103  -26.6782   27.0881 H   0  0  0  0  0  0  0  0  0  0  0  0
  -11.8873  -26.8050   25.6837 H   0  0  0  0  0  0  0  0  0  0  0  0
  -10.7122  -24.7620   25.0623 H   0  0  0  0  0  0  0  0  0  0  0  0
  -10.1397  -25.0247   27.2969 H   0  0  0  0  0  0  0  0  0  0  0  0
  -11.0294  -23.5054   27.3138 H   0  0  0  0  0  0  0  0  0  0  0  0
  1  2  1  0
  2  3  1  0
  3  4  1  0
  4  5  1  0
  5  6  1  0
  6  7  2  0
  7  8  1  0
  8  9  1  0
  9 10  1  0
 10 11  1  0
 11 12  1  0
 12 13  1  0
 13 14  1  0
 10  2  1  0
  8  4  2  0
 14 10  1  0
  1 15  1  0
  2 16  1  0
  3 17  1  0
  3 18  1  0
  5 19  1  0
  6 20  1  0
  7 21  1  0
  9 22  1  0
  9 23  1  0
 11 24  1  0
 11 25  1  0
 12 26  1  0
 13 27  1  0
 14 28  1  0
 14 29  1  0
M  END
>  <Energy>  (796) 
67.900338716870863

>  <compound_id>  (796) 
2111

>  <target_id>  (796) 
1

>  <reference_id>  (796) 
38

>  <inspiration_ids>  (796) 
[38, 75]

>  <energy_score>  (796) 
-39.63562120642868

>  <distance_score>  (796) 
1.1719149415482364

>  <path>  (796) 
/opt/xchem-fragalysis-2/maxwin/BulkDock/SCRATCH/505732/C2111-P38/C2111-P38.minimised.mol

>  <scratch_subdir>  (796) 
/opt/xchem-fragalysis-2/maxwin/BulkDock/SCRATCH/505732/C2111-P38

>  <fragmenstein_runtime>  (796) 
2.918323516845703

>  <fragmenstein_outcome>  (796) 
too moved

>  <fragmenstein_mode>  (796) 
expansion

>  <fragmenstein_error>  (796) 


$$$$
C2111-P75
     RDKit          3D

 29 31  0  0  0  0  0  0  0  0999 V2000
  -11.6340  -22.3986   27.5775 O   0  0  0  0  0  0  0  0  0  0  0  0
  -11.0503  -23.5069   28.2069 C   0  0  0  0  0  0  0  0  0  0  0  0
  -11.4758  -23.4155   29.6666 C   0  0  0  0  0  0  0  0  0  0  0  0
  -10.8314  -24.5415   30.3585 C   0  0  0  0  0  0  0  0  0  0  0  0
  -10.6020  -24.5705   31.6945 N   0  0  0  0  0  0  0  0  0  0  0  0
   -9.8948  -25.6991   31.9753 C   0  0  0  0  0  0  0  0  0  0  0  0
   -9.7239  -26.4204   30.8110 C   0  0  0  0  0  0  0  0  0  0  0  0
  -10.3606  -25.6988   29.7771 C   0  0  0  0  0  0  0  0  0  0  0  0
  -10.5270  -26.0083   28.3293 C   0  0  0  0  0  0  0  0  0  0  0  0
  -11.3140  -24.9066   27.5621 C   0  0  0  0  0  0  0  0  0  0  0  0
  -12.7969  -25.2101   27.3308 C   0  0  0  0  0  0  0  0  0  0  0  0
  -13.1489  -24.7226   25.9785 N   0  0  0  0  0  0  0  0  0  0  0  0
  -11.9467  -24.1614   25.4949 N   0  0  0  0  0  0  0  0  0  0  0  0
  -10.8911  -24.9220   26.1131 C   0  0  0  0  0  0  0  0  0  0  0  0
  -12.1027  -22.6893   26.7602 H   0  0  0  0  0  0  0  0  0  0  0  0
   -9.9680  -23.3418   28.1510 H   0  0  0  0  0  0  0  0  0  0  0  0
  -12.5611  -23.3983   29.7439 H   0  0  0  0  0  0  0  0  0  0  0  0
  -11.1773  -22.4486   30.0905 H   0  0  0  0  0  0  0  0  0  0  0  0
  -10.8854  -23.8612   32.3579 H   0  0  0  0  0  0  0  0  0  0  0  0
   -9.5973  -25.8798   32.9928 H   0  0  0  0  0  0  0  0  0  0  0  0
   -9.2194  -27.3746   30.7465 H   0  0  0  0  0  0  0  0  0  0  0  0
   -9.5181  -26.0980   27.9044 H   0  0  0  0  0  0  0  0  0  0  0  0
  -11.0015  -26.9891   28.2095 H   0  0  0  0  0  0  0  0  0  0  0  0
  -13.4489  -24.7304   28.0521 H   0  0  0  0  0  0  0  0  0  0  0  0
  -12.9625  -26.2889   27.3106 H   0  0  0  0  0  0  0  0  0  0  0  0
  -13.5001  -25.5113   25.4310 H   0  0  0  0  0  0  0  0  0  0  0  0
  -11.8289  -23.9779   24.5060 H   0  0  0  0  0  0  0  0  0  0  0  0
  -10.8989  -25.9394   25.7158 H   0  0  0  0  0  0  0  0  0  0  0  0
   -9.9175  -24.4857   25.9536 H   0  0  0  0  0  0  0  0  0  0  0  0
  1  2  1  0
  2  3  1  0
  3  4  1  0
  4  5  1  0
  5  6  1  0
  6  7  2  0
  7  8  1  0
  8  9  1  0
  9 10  1  0
 10 11  1  0
 11 12  1  0
 12 13  1  0
 13 14  1  0
 10  2  1  0
  8  4  2  0
 14 10  1  0
  1 15  1  0
  2 16  1  0
  3 17  1  0
  3 18  1  0
  5 19  1  0
  6 20  1  0
  7 21  1  0
  9 22  1  0
  9 23  1  0
 11 24  1  0
 11 25  1  0
 12 26  1  0
 13 27  1  0
 14 28  1  0
 14 29  1  0
M  END
>  <Energy>  (797) 
69.454457829084362

>  <compound_id>  (797) 
2111

>  <target_id>  (797) 
1

>  <reference_id>  (797) 
75

>  <inspiration_ids>  (797) 
[38, 75]

>  <energy_score>  (797) 
-38.08150209421592

>  <distance_score>  (797) 
1.4506243804943961

>  <path>  (797) 
/opt/xchem-fragalysis-2/maxwin/BulkDock/SCRATCH/505732/C2111-P75/C2111-P75.minimised.mol

>  <scratch_subdir>  (797) 
/opt/xchem-fragalysis-2/maxwin/BulkDock/SCRATCH/505732/C2111-P75

>  <fragmenstein_runtime>  (797) 
2.931333065032959

>  <fragmenstein_outcome>  (797) 
too moved

>  <fragmenstein_mode>  (797) 
expansion

>  <fragmenstein_error>  (797) 


$$$$
C2112-P38
     RDKit          3D

 61 64  0  0  0  0  0  0  0  0999 V2000
   -6.0976  -24.5066   28.5914 C   0  0  0  0  0  0  0  0  0  0  0  0
   -7.9147  -25.1061   29.2363 N   0  0  0  0  0  0  0  0  0  0  0  0
   -8.4343  -25.2286   30.8257 C   0  0  0  0  0  0  0  0  0  0  0  0
   -9.1061  -25.8949   28.3513 S   0  0  0  0  0  0  0  0  0  0  0  0
   -9.5040  -24.9726   27.3374 O   0  0  0  0  0  0  0  0  0  0  0  0
  -10.1815  -26.5156   29.2123 N   0  0  0  0  0  0  0  0  0  0  0  0
  -11.3477  -26.9810   28.4664 C   0  0  0  0  0  0  0  0  0  0  0  0
  -12.4339  -27.1852   29.4899 C   0  0  0  0  0  0  0  0  0  0  0  0
  -12.1910  -26.3709   30.6962 N   0  0  0  0  0  0  0  0  0  0  0  0
  -12.3063  -25.0094   30.7073 C   0  0  0  0  0  0  0  0  0  0  0  0
  -11.9263  -24.2348   31.7770 C   0  0  0  0  0  0  0  0  0  0  0  0
  -11.7804  -22.9533   31.3158 N   0  0  0  0  0  0  0  0  0  0  0  0
  -11.9005  -22.9621   29.9452 C   0  0  0  0  0  0  0  0  0  0  0  0
  -11.4611  -22.0745   28.9735 C   0  0  0  0  0  0  0  0  0  0  0  0
  -11.5584  -22.4993   27.6390 C   0  0  0  0  0  0  0  0  0  0  0  0
  -12.2609  -23.6407   27.2592 C   0  0  0  0  0  0  0  0  0  0  0  0
  -12.2724  -24.1430   25.8264 C   0  0  0  0  0  0  0  0  0  0  0  0
  -13.5336  -24.7173   25.3965 N   0  0  0  0  0  0  0  0  0  0  0  0
  -11.2192  -24.0720   25.2645 O   0  0  0  0  0  0  0  0  0  0  0  0
  -12.8499  -24.4005   28.2622 C   0  0  0  0  0  0  0  0  0  0  0  0
  -12.5023  -24.1623   29.5985 C   0  0  0  0  0  0  0  0  0  0  0  0
   -8.1042  -27.3508   28.0997 C   0  0  0  0  0  0  0  0  0  0  0  0
   -7.8619  -28.2705   29.8143 C   0  0  0  0  0  0  0  0  0  0  0  0
   -5.9424  -28.7237   29.8372 C   0  0  0  0  0  0  0  0  0  0  0  0
   -5.3806  -28.2684   27.7300 N   0  0  0  0  0  0  0  0  0  0  0  0
   -4.2692  -29.0476   26.1029 C   0  0  0  0  0  0  0  0  0  0  0  0
   -3.7479  -31.3541   26.0520 C   0  0  0  0  0  0  0  0  0  0  0  0
   -3.2431  -32.0634   27.4277 C   0  0  0  0  0  0  0  0  0  0  0  0
   -1.4521  -31.5164   27.6266 O   0  0  0  0  0  0  0  0  0  0  0  0
   -0.6638  -32.0491   26.3832 N   0  0  0  0  0  0  0  0  0  0  0  0
   -1.8913  -31.3725   26.6850 C   0  0  0  0  0  0  0  0  0  0  0  0
   -1.0751  -29.2991   28.1332 Br  0  0  0  0  0  0  0  0  0  0  0  0
   -6.6057  -27.5066   27.2476 C   0  0  0  0  0  0  0  0  0  0  0  0
   -6.0659  -23.6006   27.8684 H   0  0  0  0  0  0  0  0  0  0  0  0
   -5.6720  -24.1120   29.4276 H   0  0  0  0  0  0  0  0  0  0  0  0
   -5.1193  -25.0184   28.6890 H   0  0  0  0  0  0  0  0  0  0  0  0
   -8.9089  -26.1862   31.0445 H   0  0  0  0  0  0  0  0  0  0  0  0
   -7.7004  -25.1702   31.6359 H   0  0  0  0  0  0  0  0  0  0  0  0
   -9.2444  -24.5254   30.9959 H   0  0  0  0  0  0  0  0  0  0  0  0
  -11.6263  -26.3012   27.6693 H   0  0  0  0  0  0  0  0  0  0  0  0
  -11.2166  -27.9039   27.9227 H   0  0  0  0  0  0  0  0  0  0  0  0
  -12.4173  -28.2307   29.8208 H   0  0  0  0  0  0  0  0  0  0  0  0
  -13.4109  -27.0476   29.0256 H   0  0  0  0  0  0  0  0  0  0  0  0
  -11.2103  -26.5954   30.9323 H   0  0  0  0  0  0  0  0  0  0  0  0
  -11.6721  -24.4901   32.7954 H   0  0  0  0  0  0  0  0  0  0  0  0
  -11.4061  -22.1896   31.8596 H   0  0  0  0  0  0  0  0  0  0  0  0
  -10.9424  -21.1627   29.2253 H   0  0  0  0  0  0  0  0  0  0  0  0
  -11.1273  -21.8738   26.8693 H   0  0  0  0  0  0  0  0  0  0  0  0
  -14.1946  -24.7024   26.1833 H   0  0  0  0  0  0  0  0  0  0  0  0
  -14.2571  -24.4951   26.0908 H   0  0  0  0  0  0  0  0  0  0  0  0
  -13.3970  -25.2951   28.0170 H   0  0  0  0  0  0  0  0  0  0  0  0
   -8.7612  -27.5209   27.2424 H   0  0  0  0  0  0  0  0  0  0  0  0
   -7.7642  -27.8448   30.8545 H   0  0  0  0  0  0  0  0  0  0  0  0
   -8.8403  -28.2869   30.3355 H   0  0  0  0  0  0  0  0  0  0  0  0
   -4.8999  -28.3729   30.1670 H   0  0  0  0  0  0  0  0  0  0  0  0
   -5.7745  -29.6358   30.4493 H   0  0  0  0  0  0  0  0  0  0  0  0
   -3.5222  -28.2777   26.3681 H   0  0  0  0  0  0  0  0  0  0  0  0
   -4.9926  -28.6860   25.3552 H   0  0  0  0  0  0  0  0  0  0  0  0
   -3.6377  -31.9002   28.4624 H   0  0  0  0  0  0  0  0  0  0  0  0
   -6.8526  -26.5783   27.5974 H   0  0  0  0  0  0  0  0  0  0  0  0
   -5.7139  -26.9792   27.5349 H   0  0  0  0  0  0  0  0  0  0  0  0
  1  2  1  0
  2  3  1  0
  2  4  1  0
  4  5  2  0
  4  6  2  0
  6  7  1  0
  7  8  1  0
  8  9  1  0
  9 10  1  0
 10 11  2  0
 11 12  1  0
 12 13  1  0
 13 14  2  0
 14 15  1  0
 15 16  2  0
 16 17  1  0
 17 18  1  0
 17 19  2  0
 16 20  1  0
 20 21  2  0
  4 22  1  0
 22 23  1  0
 23 24  1  0
 24 25  1  0
 25 26  1  0
 26 27  1  0
 27 28  2  0
 28 29  1  0
 29 30  1  0
 30 31  2  0
 31 32  1  0
 25 33  1  0
 21 10  1  0
 33 22  1  0
 21 13  1  0
 31 27  1  0
  1 34  1  0
  1 35  1  0
  1 36  1  0
  3 37  1  0
  3 38  1  0
  3 39  1  0
  7 40  1  0
  7 41  1  0
  8 42  1  0
  8 43  1  0
  9 44  1  0
 11 45  1  0
 12 46  1  0
 14 47  1  0
 15 48  1  0
 18 49  1  0
 18 50  1  0
 20 51  1  0
 22 52  1  0
 23 53  1  0
 23 54  1  0
 24 55  1  0
 24 56  1  0
 26 57  1  0
 26 58  1  0
 28 59  1  0
 33 60  1  0
 33 61  1  0
M  END
>  <Energy>  (798) 
1909.1384960530529

>  <compound_id>  (798) 
2112

>  <target_id>  (798) 
1

>  <reference_id>  (798) 
38

>  <inspiration_ids>  (798) 
[38, 82]

>  <energy_score>  (798) 
1892.8541600973642

>  <distance_score>  (798) 
3.2720598168941377

>  <path>  (798) 
/opt/xchem-fragalysis-2/maxwin/BulkDock/SCRATCH/505732/C2112-P38/C2112-P38.minimised.mol

>  <scratch_subdir>  (798) 
/opt/xchem-fragalysis-2/maxwin/BulkDock/SCRATCH/505732/C2112-P38

>  <fragmenstein_runtime>  (798) 
25.79710340499878

>  <fragmenstein_outcome>  (798) 
too moved

>  <fragmenstein_mode>  (798) 
expansion

>  <fragmenstein_error>  (798) 


$$$$
C2112-P82
     RDKit          3D

 61 64  0  0  0  0  0  0  0  0999 V2000
   -9.4571  -25.1068   28.8407 C   0  0  0  0  0  0  0  0  0  0  0  0
  -10.1299  -26.3289   28.5353 N   0  0  0  0  0  0  0  0  0  0  0  0
  -10.3745  -27.0070   29.8024 C   0  0  0  0  0  0  0  0  0  0  0  0
  -10.8113  -26.6768   27.0051 S   0  0  0  0  0  0  0  0  0  0  0  0
  -11.9782  -27.4826   27.3232 O   0  0  0  0  0  0  0  0  0  0  0  0
  -10.9369  -25.3018   26.3202 N   0  0  0  0  0  0  0  0  0  0  0  0
  -12.2063  -24.5631   26.3388 C   0  0  0  0  0  0  0  0  0  0  0  0
  -12.2290  -23.1454   26.9514 C   0  0  0  0  0  0  0  0  0  0  0  0
  -11.6784  -22.7617   28.2686 N   0  0  0  0  0  0  0  0  0  0  0  0
  -11.9811  -23.4298   29.3971 C   0  0  0  0  0  0  0  0  0  0  0  0
  -12.4268  -24.7104   29.3775 C   0  0  0  0  0  0  0  0  0  0  0  0
  -12.4168  -25.1626   30.6355 N   0  0  0  0  0  0  0  0  0  0  0  0
  -12.0399  -24.2252   31.5117 C   0  0  0  0  0  0  0  0  0  0  0  0
  -11.8817  -24.3634   32.8675 C   0  0  0  0  0  0  0  0  0  0  0  0
  -12.0267  -23.1915   33.5560 C   0  0  0  0  0  0  0  0  0  0  0  0
  -12.1826  -21.9787   32.9042 C   0  0  0  0  0  0  0  0  0  0  0  0
  -12.9518  -20.9330   33.6347 C   0  0  0  0  0  0  0  0  0  0  0  0
  -12.1640  -19.8504   34.1249 N   0  0  0  0  0  0  0  0  0  0  0  0
  -14.1290  -21.1379   33.7088 O   0  0  0  0  0  0  0  0  0  0  0  0
  -11.9218  -21.8823   31.5328 C   0  0  0  0  0  0  0  0  0  0  0  0
  -11.9656  -23.0535   30.7794 C   0  0  0  0  0  0  0  0  0  0  0  0
   -9.6765  -27.7258   25.8911 C   0  0  0  0  0  0  0  0  0  0  0  0
  -10.0440  -29.1312   25.8131 C   0  0  0  0  0  0  0  0  0  0  0  0
   -8.7503  -29.9878   25.2480 C   0  0  0  0  0  0  0  0  0  0  0  0
   -7.4908  -29.4050   25.7921 N   0  0  0  0  0  0  0  0  0  0  0  0
   -5.6618  -30.0766   25.4592 C   0  0  0  0  0  0  0  0  0  0  0  0
   -4.1460  -31.6844   26.0075 C   0  0  0  0  0  0  0  0  0  0  0  0
   -3.7544  -32.0242   27.2314 C   0  0  0  0  0  0  0  0  0  0  0  0
   -4.1540  -33.2789   27.2943 O   0  0  0  0  0  0  0  0  0  0  0  0
   -3.0726  -32.4544   28.1169 N   0  0  0  0  0  0  0  0  0  0  0  0
   -2.3964  -31.5814   26.8992 C   0  0  0  0  0  0  0  0  0  0  0  0
   -0.4865  -32.4856   25.7383 Br  0  0  0  0  0  0  0  0  0  0  0  0
   -8.1945  -28.0241   26.1509 C   0  0  0  0  0  0  0  0  0  0  0  0
   -8.3894  -25.2539   28.8867 H   0  0  0  0  0  0  0  0  0  0  0  0
   -9.6725  -24.3207   28.1214 H   0  0  0  0  0  0  0  0  0  0  0  0
   -9.7094  -24.7264   29.8310 H   0  0  0  0  0  0  0  0  0  0  0  0
   -9.4922  -27.5385   30.1490 H   0  0  0  0  0  0  0  0  0  0  0  0
  -10.5101  -26.3544   30.6632 H   0  0  0  0  0  0  0  0  0  0  0  0
  -11.2571  -27.6462   29.7613 H   0  0  0  0  0  0  0  0  0  0  0  0
  -12.4820  -24.4209   25.2865 H   0  0  0  0  0  0  0  0  0  0  0  0
  -13.0362  -25.1711   26.7099 H   0  0  0  0  0  0  0  0  0  0  0  0
  -13.2858  -22.9268   27.0030 H   0  0  0  0  0  0  0  0  0  0  0  0
  -11.8295  -22.4505   26.2221 H   0  0  0  0  0  0  0  0  0  0  0  0
  -11.4453  -21.7700   28.3119 H   0  0  0  0  0  0  0  0  0  0  0  0
  -12.7329  -25.3897   28.6156 H   0  0  0  0  0  0  0  0  0  0  0  0
  -12.7293  -26.0706   30.8902 H   0  0  0  0  0  0  0  0  0  0  0  0
  -11.8820  -25.3132   33.3774 H   0  0  0  0  0  0  0  0  0  0  0  0
  -12.0807  -23.2840   34.6237 H   0  0  0  0  0  0  0  0  0  0  0  0
  -11.1674  -20.0674   33.9763 H   0  0  0  0  0  0  0  0  0  0  0  0
  -11.1968  -19.9517   33.7719 H   0  0  0  0  0  0  0  0  0  0  0  0
  -11.8652  -20.9747   30.9900 H   0  0  0  0  0  0  0  0  0  0  0  0
   -9.9491  -27.2840   24.9436 H   0  0  0  0  0  0  0  0  0  0  0  0
  -10.4657  -29.7029   26.6481 H   0  0  0  0  0  0  0  0  0  0  0  0
  -10.9774  -28.8988   25.2912 H   0  0  0  0  0  0  0  0  0  0  0  0
   -8.6469  -29.9428   24.1626 H   0  0  0  0  0  0  0  0  0  0  0  0
   -8.9538  -31.0182   25.5642 H   0  0  0  0  0  0  0  0  0  0  0  0
   -5.3443  -28.9817   25.5831 H   0  0  0  0  0  0  0  0  0  0  0  0
   -5.8860  -30.1506   24.2973 H   0  0  0  0  0  0  0  0  0  0  0  0
   -4.2031  -31.5468   28.5363 H   0  0  0  0  0  0  0  0  0  0  0  0
   -7.2730  -27.5283   26.3939 H   0  0  0  0  0  0  0  0  0  0  0  0
   -8.3828  -27.5197   27.1263 H   0  0  0  0  0  0  0  0  0  0  0  0
  1  2  1  0
  2  3  1  0
  2  4  1  0
  4  5  2  0
  4  6  2  0
  6  7  1  0
  7  8  1  0
  8  9  1  0
  9 10  1  0
 10 11  2  0
 11 12  1  0
 12 13  1  0
 13 14  2  0
 14 15  1  0
 15 16  2  0
 16 17  1  0
 17 18  1  0
 17 19  2  0
 16 20  1  0
 20 21  2  0
  4 22  1  0
 22 23  1  0
 23 24  1  0
 24 25  1  0
 25 26  1  0
 26 27  1  0
 27 28  2  0
 28 29  1  0
 29 30  1  0
 30 31  2  0
 31 32  1  0
 25 33  1  0
 21 10  1  0
 33 22  1  0
 21 13  1  0
 31 27  1  0
  1 34  1  0
  1 35  1  0
  1 36  1  0
  3 37  1  0
  3 38  1  0
  3 39  1  0
  7 40  1  0
  7 41  1  0
  8 42  1  0
  8 43  1  0
  9 44  1  0
 11 45  1  0
 12 46  1  0
 14 47  1  0
 15 48  1  0
 18 49  1  0
 18 50  1  0
 20 51  1  0
 22 52  1  0
 23 53  1  0
 23 54  1  0
 24 55  1  0
 24 56  1  0
 26 57  1  0
 26 58  1  0
 28 59  1  0
 33 60  1  0
 33 61  1  0
M  END
>  <Energy>  (799) 
1214.5815114634281

>  <compound_id>  (799) 
2112

>  <target_id>  (799) 
1

>  <reference_id>  (799) 
82

>  <inspiration_ids>  (799) 
[38, 82]

>  <energy_score>  (799) 
1198.2971755077506

>  <distance_score>  (799) 
3.1822827601069665

>  <path>  (799) 
/opt/xchem-fragalysis-2/maxwin/BulkDock/SCRATCH/505732/C2112-P82/C2112-P82.minimised.mol

>  <scratch_subdir>  (799) 
/opt/xchem-fragalysis-2/maxwin/BulkDock/SCRATCH/505732/C2112-P82

>  <fragmenstein_runtime>  (799) 
26.93605351448059

>  <fragmenstein_outcome>  (799) 
too moved

>  <fragmenstein_mode>  (799) 
expansion

>  <fragmenstein_error>  (799) 


$$$$
C2114-P38
     RDKit          3D

 45 47  0  0  0  0  0  0  0  0999 V2000
  -11.2958  -21.6112   29.6838 N   0  0  0  0  0  0  0  0  0  0  0  0
  -11.7042  -22.9796   29.9765 C   0  0  0  0  0  0  0  0  0  0  0  0
  -12.1354  -23.4632   30.9807 O   0  0  0  0  0  0  0  0  0  0  0  0
  -11.6024  -23.9366   28.7926 C   0  0  0  0  0  0  0  0  0  0  0  0
  -11.9606  -23.4363   27.5396 C   0  0  0  0  0  0  0  0  0  0  0  0
  -12.3774  -24.3508   26.5739 C   0  0  0  0  0  0  0  0  0  0  0  0
  -13.3160  -24.3200   25.5163 C   0  0  0  0  0  0  0  0  0  0  0  0
  -13.5167  -25.6218   25.1347 C   0  0  0  0  0  0  0  0  0  0  0  0
  -12.4675  -26.3413   25.6377 N   0  0  0  0  0  0  0  0  0  0  0  0
  -11.9191  -25.6461   26.6788 C   0  0  0  0  0  0  0  0  0  0  0  0
  -11.1622  -26.0869   27.7460 C   0  0  0  0  0  0  0  0  0  0  0  0
  -11.4022  -25.3317   28.9026 C   0  0  0  0  0  0  0  0  0  0  0  0
  -11.7290  -26.0965   30.1732 C   0  0  0  0  0  0  0  0  0  0  0  0
  -11.8708  -27.6378   30.0712 C   0  0  0  0  0  0  0  0  0  0  0  0
  -12.7915  -28.2441   28.9588 N   0  0  0  0  0  0  0  0  0  0  0  0
  -14.1507  -29.1506   29.3792 S   0  0  0  0  0  0  0  0  0  0  0  0
  -13.9545  -29.5630   30.7482 O   0  0  0  0  0  0  0  0  0  0  0  0
  -15.2742  -28.3349   28.9697 O   0  0  0  0  0  0  0  0  0  0  0  0
  -14.2041  -30.5259   28.4006 N   0  0  0  0  0  0  0  0  0  0  0  0
  -15.2602  -30.4942   27.3090 C   0  0  0  0  0  0  0  0  0  0  0  0
  -16.5955  -31.1052   27.7669 C   0  0  0  0  0  0  0  0  0  0  0  0
  -16.4934  -32.5433   28.0639 N   0  0  0  0  0  0  0  0  0  0  0  0
  -15.1281  -32.8977   28.4841 C   0  0  0  0  0  0  0  0  0  0  0  0
  -14.4008  -31.7734   29.2472 C   0  0  0  0  0  0  0  0  0  0  0  0
  -11.0822  -21.5299   28.6738 H   0  0  0  0  0  0  0  0  0  0  0  0
  -10.8608  -21.5809   28.7415 H   0  0  0  0  0  0  0  0  0  0  0  0
  -12.2307  -22.4142   27.3948 H   0  0  0  0  0  0  0  0  0  0  0  0
  -13.9086  -23.4870   25.1670 H   0  0  0  0  0  0  0  0  0  0  0  0
  -14.2207  -26.0682   24.4480 H   0  0  0  0  0  0  0  0  0  0  0  0
  -12.3502  -27.3378   25.4817 H   0  0  0  0  0  0  0  0  0  0  0  0
  -10.8530  -27.1204   27.7800 H   0  0  0  0  0  0  0  0  0  0  0  0
  -10.9613  -25.8670   30.9223 H   0  0  0  0  0  0  0  0  0  0  0  0
  -12.6792  -25.7107   30.5362 H   0  0  0  0  0  0  0  0  0  0  0  0
  -12.0899  -28.0898   31.0371 H   0  0  0  0  0  0  0  0  0  0  0  0
  -10.8506  -27.9361   29.8781 H   0  0  0  0  0  0  0  0  0  0  0  0
  -13.0931  -27.5099   28.3124 H   0  0  0  0  0  0  0  0  0  0  0  0
  -15.4426  -29.4811   26.9414 H   0  0  0  0  0  0  0  0  0  0  0  0
  -14.8661  -31.0612   26.4575 H   0  0  0  0  0  0  0  0  0  0  0  0
  -17.3493  -30.9704   26.9841 H   0  0  0  0  0  0  0  0  0  0  0  0
  -16.9570  -30.5789   28.6584 H   0  0  0  0  0  0  0  0  0  0  0  0
  -17.1580  -32.7696   28.8049 H   0  0  0  0  0  0  0  0  0  0  0  0
  -14.5579  -33.1679   27.5875 H   0  0  0  0  0  0  0  0  0  0  0  0
  -15.1798  -33.7955   29.1099 H   0  0  0  0  0  0  0  0  0  0  0  0
  -13.4203  -32.0931   29.6026 H   0  0  0  0  0  0  0  0  0  0  0  0
  -15.0163  -31.5577   30.1295 H   0  0  0  0  0  0  0  0  0  0  0  0
  1  2  1  0
  2  3  2  0
  2  4  1  0
  4  5  2  0
  5  6  1  0
  6  7  1  0
  7  8  2  0
  8  9  1  0
  9 10  1  0
 10 11  1  0
 11 12  2  0
 12 13  1  0
 13 14  1  0
 14 15  1  0
 15 16  1  0
 16 17  2  0
 16 18  2  0
 16 19  1  0
 19 20  1  0
 20 21  1  0
 21 22  1  0
 22 23  1  0
 23 24  1  0
 12  4  1  0
 24 19  1  0
 10  6  2  0
  1 25  1  0
  1 26  1  0
  5 27  1  0
  7 28  1  0
  8 29  1  0
  9 30  1  0
 11 31  1  0
 13 32  1  0
 13 33  1  0
 14 34  1  0
 14 35  1  0
 15 36  1  0
 20 37  1  0
 20 38  1  0
 21 39  1  0
 21 40  1  0
 22 41  1  0
 23 42  1  0
 23 43  1  0
 24 44  1  0
 24 45  1  0
M  END
>  <Energy>  (800) 
129.01014207052114

>  <compound_id>  (800) 
2114

>  <target_id>  (800) 
1

>  <reference_id>  (800) 
38

>  <inspiration_ids>  (800) 
[38, 101]

>  <energy_score>  (800) 
142.45175049892217

>  <distance_score>  (800) 
2.0084554060907327

>  <path>  (800) 
/opt/xchem-fragalysis-2/maxwin/BulkDock/SCRATCH/505732/C2114-P38/C2114-P38.minimised.mol

>  <scratch_subdir>  (800) 
/opt/xchem-fragalysis-2/maxwin/BulkDock/SCRATCH/505732/C2114-P38

>  <fragmenstein_runtime>  (800) 
10.667283058166504

>  <fragmenstein_outcome>  (800) 
too moved

>  <fragmenstein_mode>  (800) 
expansion

>  <fragmenstein_error>  (800) 


$$$$
C2114-P101
     RDKit          3D

 45 47  0  0  0  0  0  0  0  0999 V2000
  -15.2574  -25.6544   24.1479 N   0  0  0  0  0  0  0  0  0  0  0  0
  -15.4463  -25.6575   25.5623 C   0  0  0  0  0  0  0  0  0  0  0  0
  -15.9909  -24.8738   26.2771 O   0  0  0  0  0  0  0  0  0  0  0  0
  -14.8100  -26.8198   26.1810 C   0  0  0  0  0  0  0  0  0  0  0  0
  -15.6874  -27.8723   26.4781 C   0  0  0  0  0  0  0  0  0  0  0  0
  -15.1411  -29.0974   26.8676 C   0  0  0  0  0  0  0  0  0  0  0  0
  -15.6915  -30.3614   27.1980 C   0  0  0  0  0  0  0  0  0  0  0  0
  -14.6429  -31.2054   27.4753 C   0  0  0  0  0  0  0  0  0  0  0  0
  -13.4822  -30.4987   27.3386 N   0  0  0  0  0  0  0  0  0  0  0  0
  -13.7588  -29.2077   26.9707 C   0  0  0  0  0  0  0  0  0  0  0  0
  -12.8935  -28.1335   26.7425 C   0  0  0  0  0  0  0  0  0  0  0  0
  -13.4176  -26.9049   26.3269 C   0  0  0  0  0  0  0  0  0  0  0  0
  -12.4290  -25.8051   26.0087 C   0  0  0  0  0  0  0  0  0  0  0  0
  -12.6790  -24.3745   26.4956 C   0  0  0  0  0  0  0  0  0  0  0  0
  -12.8573  -24.3426   27.9369 N   0  0  0  0  0  0  0  0  0  0  0  0
  -12.0870  -23.2321   28.8964 S   0  0  0  0  0  0  0  0  0  0  0  0
  -11.3817  -22.2729   28.0977 O   0  0  0  0  0  0  0  0  0  0  0  0
  -12.9662  -22.8582   29.9700 O   0  0  0  0  0  0  0  0  0  0  0  0
  -10.9951  -24.2790   29.4599 N   0  0  0  0  0  0  0  0  0  0  0  0
  -10.0434  -24.8578   28.5375 C   0  0  0  0  0  0  0  0  0  0  0  0
   -9.9905  -26.3461   28.7734 C   0  0  0  0  0  0  0  0  0  0  0  0
   -9.9650  -26.7243   30.1890 N   0  0  0  0  0  0  0  0  0  0  0  0
   -9.6977  -25.5486   31.0576 C   0  0  0  0  0  0  0  0  0  0  0  0
  -10.7673  -24.4743   30.8906 C   0  0  0  0  0  0  0  0  0  0  0  0
  -14.8374  -26.5636   23.8596 H   0  0  0  0  0  0  0  0  0  0  0  0
  -14.6315  -26.4459   23.8874 H   0  0  0  0  0  0  0  0  0  0  0  0
  -16.7623  -27.7540   26.3626 H   0  0  0  0  0  0  0  0  0  0  0  0
  -16.7406  -30.6289   27.2183 H   0  0  0  0  0  0  0  0  0  0  0  0
  -14.6321  -32.2519   27.7471 H   0  0  0  0  0  0  0  0  0  0  0  0
  -12.5537  -30.8714   27.4654 H   0  0  0  0  0  0  0  0  0  0  0  0
  -11.8307  -28.2538   26.8922 H   0  0  0  0  0  0  0  0  0  0  0  0
  -11.4360  -26.1110   26.3489 H   0  0  0  0  0  0  0  0  0  0  0  0
  -12.3364  -25.7957   24.9243 H   0  0  0  0  0  0  0  0  0  0  0  0
  -13.5523  -23.9476   26.0017 H   0  0  0  0  0  0  0  0  0  0  0  0
  -11.8293  -23.7646   26.1764 H   0  0  0  0  0  0  0  0  0  0  0  0
  -13.7451  -24.6045   28.3392 H   0  0  0  0  0  0  0  0  0  0  0  0
   -9.0798  -24.4169   28.7238 H   0  0  0  0  0  0  0  0  0  0  0  0
  -10.2480  -24.6460   27.4897 H   0  0  0  0  0  0  0  0  0  0  0  0
  -10.8707  -26.8169   28.3352 H   0  0  0  0  0  0  0  0  0  0  0  0
   -9.1238  -26.7484   28.2507 H   0  0  0  0  0  0  0  0  0  0  0  0
  -10.9309  -26.9918   30.3897 H   0  0  0  0  0  0  0  0  0  0  0  0
   -9.6472  -25.8008   32.1098 H   0  0  0  0  0  0  0  0  0  0  0  0
   -8.7120  -25.1618   30.8277 H   0  0  0  0  0  0  0  0  0  0  0  0
  -10.4736  -23.5524   31.3928 H   0  0  0  0  0  0  0  0  0  0  0  0
  -11.6703  -24.7902   31.3960 H   0  0  0  0  0  0  0  0  0  0  0  0
  1  2  1  0
  2  3  2  0
  2  4  1  0
  4  5  2  0
  5  6  1  0
  6  7  1  0
  7  8  2  0
  8  9  1  0
  9 10  1  0
 10 11  1  0
 11 12  2  0
 12 13  1  0
 13 14  1  0
 14 15  1  0
 15 16  1  0
 16 17  2  0
 16 18  2  0
 16 19  1  0
 19 20  1  0
 20 21  1  0
 21 22  1  0
 22 23  1  0
 23 24  1  0
 12  4  1  0
 24 19  1  0
 10  6  2  0
  1 25  1  0
  1 26  1  0
  5 27  1  0
  7 28  1  0
  8 29  1  0
  9 30  1  0
 11 31  1  0
 13 32  1  0
 13 33  1  0
 14 34  1  0
 14 35  1  0
 15 36  1  0
 20 37  1  0
 20 38  1  0
 21 39  1  0
 21 40  1  0
 22 41  1  0
 23 42  1  0
 23 43  1  0
 24 44  1  0
 24 45  1  0
M  END
>  <Energy>  (801) 
87.624793095478907

>  <compound_id>  (801) 
2114

>  <target_id>  (801) 
1

>  <reference_id>  (801) 
101

>  <inspiration_ids>  (801) 
[38, 101]

>  <energy_score>  (801) 
101.06640152388047

>  <distance_score>  (801) 
6.124707097048202

>  <path>  (801) 
/opt/xchem-fragalysis-2/maxwin/BulkDock/SCRATCH/505732/C2114-P101/C2114-P101.minimised.mol

>  <scratch_subdir>  (801) 
/opt/xchem-fragalysis-2/maxwin/BulkDock/SCRATCH/505732/C2114-P101

>  <fragmenstein_runtime>  (801) 
15.67762041091919

>  <fragmenstein_outcome>  (801) 
too moved

>  <fragmenstein_mode>  (801) 
expansion

>  <fragmenstein_error>  (801) 


$$$$
C1604-P38
     RDKit          3D

 48 51  0  0  0  0  0  0  0  0999 V2000
  -10.9064  -26.9453   25.5356 C   0  0  0  0  0  0  0  0  0  0  0  0
  -10.6260  -26.6639   26.9976 C   0  0  0  0  0  0  0  0  0  0  0  0
  -12.0232  -27.1533   27.9656 S   0  0  0  0  0  0  0  0  0  0  0  0
  -12.2701  -28.5725   27.9130 O   0  0  0  0  0  0  0  0  0  0  0  0
  -12.9577  -26.1241   27.3544 N   0  0  0  0  0  0  0  0  0  0  0  0
  -14.3625  -26.2637   27.3447 C   0  0  0  0  0  0  0  0  0  0  0  0
  -14.9811  -26.6838   26.1868 C   0  0  0  0  0  0  0  0  0  0  0  0
  -16.3529  -26.7964   26.1971 C   0  0  0  0  0  0  0  0  0  0  0  0
  -17.2295  -27.2291   25.2385 N   0  0  0  0  0  0  0  0  0  0  0  0
  -18.5046  -27.1701   25.7277 C   0  0  0  0  0  0  0  0  0  0  0  0
  -18.4479  -26.6472   26.9998 C   0  0  0  0  0  0  0  0  0  0  0  0
  -17.0877  -26.3944   27.2994 C   0  0  0  0  0  0  0  0  0  0  0  0
  -16.4091  -25.7490   28.3557 C   0  0  0  0  0  0  0  0  0  0  0  0
  -15.0168  -25.5799   28.3208 C   0  0  0  0  0  0  0  0  0  0  0  0
  -14.1790  -24.4453   29.0322 C   0  0  0  0  0  0  0  0  0  0  0  0
  -13.0888  -23.9523   28.2244 N   0  0  0  0  0  0  0  0  0  0  0  0
  -14.5758  -24.0822   30.0822 O   0  0  0  0  0  0  0  0  0  0  0  0
  -11.8662  -26.9642   29.6228 N   0  0  0  0  0  0  0  0  0  0  0  0
  -11.4748  -25.8230   30.4297 C   0  0  0  0  0  0  0  0  0  0  0  0
  -10.4412  -24.9996   29.7425 C   0  0  0  0  0  0  0  0  0  0  0  0
  -10.8587  -23.7932   29.1589 C   0  0  0  0  0  0  0  0  0  0  0  0
  -10.1709  -23.1293   28.1610 C   0  0  0  0  0  0  0  0  0  0  0  0
   -8.8949  -23.6139   27.9512 C   0  0  0  0  0  0  0  0  0  0  0  0
   -8.3541  -24.8680   28.6020 C   0  0  0  0  0  0  0  0  0  0  0  0
   -9.1257  -25.4551   29.6113 C   0  0  0  0  0  0  0  0  0  0  0  0
   -6.4723  -24.6484   28.3785 O   0  0  0  0  0  0  0  0  0  0  0  0
   -6.4671  -23.0817   27.4390 C   0  0  0  0  0  0  0  0  0  0  0  0
   -7.7985  -22.5951   27.6491 O   0  0  0  0  0  0  0  0  0  0  0  0
  -11.9399  -26.7700   25.2355 H   0  0  0  0  0  0  0  0  0  0  0  0
  -10.3864  -26.2367   24.9176 H   0  0  0  0  0  0  0  0  0  0  0  0
  -10.6276  -27.9604   25.2582 H   0  0  0  0  0  0  0  0  0  0  0  0
  -10.5830  -25.5787   27.0679 H   0  0  0  0  0  0  0  0  0  0  0  0
   -9.6809  -27.0187   27.3768 H   0  0  0  0  0  0  0  0  0  0  0  0
  -14.3862  -26.8376   25.3038 H   0  0  0  0  0  0  0  0  0  0  0  0
  -16.9793  -27.5478   24.3126 H   0  0  0  0  0  0  0  0  0  0  0  0
  -19.3472  -27.4817   25.1240 H   0  0  0  0  0  0  0  0  0  0  0  0
  -19.3032  -26.4425   27.6313 H   0  0  0  0  0  0  0  0  0  0  0  0
  -17.0570  -25.2715   29.0665 H   0  0  0  0  0  0  0  0  0  0  0  0
  -12.9514  -24.5918   27.4098 H   0  0  0  0  0  0  0  0  0  0  0  0
  -13.1003  -24.4406   27.3013 H   0  0  0  0  0  0  0  0  0  0  0  0
  -11.2901  -27.7437   29.9188 H   0  0  0  0  0  0  0  0  0  0  0  0
  -11.0655  -26.1762   31.3841 H   0  0  0  0  0  0  0  0  0  0  0  0
  -12.3439  -25.2270   30.7092 H   0  0  0  0  0  0  0  0  0  0  0  0
  -11.7110  -23.2844   29.6156 H   0  0  0  0  0  0  0  0  0  0  0  0
  -10.5253  -22.1586   27.8351 H   0  0  0  0  0  0  0  0  0  0  0  0
   -8.8843  -26.1323   30.4202 H   0  0  0  0  0  0  0  0  0  0  0  0
   -5.6351  -22.4570   27.6954 H   0  0  0  0  0  0  0  0  0  0  0  0
   -6.2877  -23.2184   26.3656 H   0  0  0  0  0  0  0  0  0  0  0  0
  1  2  1  0
  2  3  1  0
  3  4  2  0
  3  5  2  0
  5  6  1  0
  6  7  2  0
  7  8  1  0
  8  9  1  0
  9 10  1  0
 10 11  2  0
 11 12  1  0
 12 13  1  0
 13 14  2  0
 14 15  1  0
 15 16  1  0
 15 17  2  0
  3 18  1  0
 18 19  1  0
 19 20  1  0
 20 21  2  0
 21 22  1  0
 22 23  2  0
 23 24  1  0
 24 25  2  0
 24 26  1  0
 26 27  1  0
 27 28  1  0
 14  6  1  0
 25 20  1  0
 12  8  2  0
 28 23  1  0
  1 29  1  0
  1 30  1  0
  1 31  1  0
  2 32  1  0
  2 33  1  0
  7 34  1  0
  9 35  1  0
 10 36  1  0
 11 37  1  0
 13 38  1  0
 16 39  1  0
 16 40  1  0
 18 41  1  0
 19 42  1  0
 19 43  1  0
 21 44  1  0
 22 45  1  0
 25 46  1  0
 27 47  1  0
 27 48  1  0
M  END
>  <Energy>  (802) 
318.38387596301681

>  <compound_id>  (802) 
1604

>  <target_id>  (802) 
1

>  <reference_id>  (802) 
38

>  <inspiration_ids>  (802) 
[38, 104]

>  <energy_score>  (802) 
332.0452168908384

>  <distance_score>  (802) 
5.360426603478736

>  <path>  (802) 
/opt/xchem-fragalysis-2/maxwin/BulkDock/SCRATCH/505732/C1604-P38/C1604-P38.minimised.mol

>  <scratch_subdir>  (802) 
/opt/xchem-fragalysis-2/maxwin/BulkDock/SCRATCH/505732/C1604-P38

>  <fragmenstein_runtime>  (802) 
25.845413208007812

>  <fragmenstein_outcome>  (802) 
too moved

>  <fragmenstein_mode>  (802) 
expansion

>  <fragmenstein_error>  (802) 


$$$$
C1604-P104
     RDKit          3D

 48 51  0  0  0  0  0  0  0  0999 V2000
  -11.5711  -29.9369   25.1853 C   0  0  0  0  0  0  0  0  0  0  0  0
  -11.5339  -28.4830   24.6728 C   0  0  0  0  0  0  0  0  0  0  0  0
  -12.8729  -27.4275   25.2619 S   0  0  0  0  0  0  0  0  0  0  0  0
  -14.1555  -28.0338   25.0565 O   0  0  0  0  0  0  0  0  0  0  0  0
  -12.7148  -25.9024   25.0401 N   0  0  0  0  0  0  0  0  0  0  0  0
  -13.9204  -24.9735   25.2498 C   0  0  0  0  0  0  0  0  0  0  0  0
  -15.0918  -25.4902   25.8344 C   0  0  0  0  0  0  0  0  0  0  0  0
  -16.2653  -24.7383   25.8471 C   0  0  0  0  0  0  0  0  0  0  0  0
  -17.5055  -25.0578   26.3419 N   0  0  0  0  0  0  0  0  0  0  0  0
  -18.3643  -24.0143   26.1353 C   0  0  0  0  0  0  0  0  0  0  0  0
  -17.6628  -22.9986   25.5284 C   0  0  0  0  0  0  0  0  0  0  0  0
  -16.3361  -23.4525   25.3394 C   0  0  0  0  0  0  0  0  0  0  0  0
  -15.1618  -22.8615   24.8700 C   0  0  0  0  0  0  0  0  0  0  0  0
  -13.9666  -23.6144   24.8616 C   0  0  0  0  0  0  0  0  0  0  0  0
  -12.8004  -22.7196   24.7458 C   0  0  0  0  0  0  0  0  0  0  0  0
  -12.5401  -22.2057   23.4352 N   0  0  0  0  0  0  0  0  0  0  0  0
  -12.2772  -22.4840   25.7906 O   0  0  0  0  0  0  0  0  0  0  0  0
  -12.7952  -27.6400   26.9109 N   0  0  0  0  0  0  0  0  0  0  0  0
  -11.4941  -27.5544   27.5147 C   0  0  0  0  0  0  0  0  0  0  0  0
  -10.9984  -26.1745   27.6753 C   0  0  0  0  0  0  0  0  0  0  0  0
  -11.7942  -24.9974   27.7121 C   0  0  0  0  0  0  0  0  0  0  0  0
  -11.2807  -23.7506   27.9600 C   0  0  0  0  0  0  0  0  0  0  0  0
   -9.9451  -23.7178   27.9025 C   0  0  0  0  0  0  0  0  0  0  0  0
   -9.1881  -24.8473   27.8226 C   0  0  0  0  0  0  0  0  0  0  0  0
   -9.6472  -26.1013   27.8048 C   0  0  0  0  0  0  0  0  0  0  0  0
   -7.9087  -24.5696   27.5996 O   0  0  0  0  0  0  0  0  0  0  0  0
   -8.0013  -23.1710   27.2529 C   0  0  0  0  0  0  0  0  0  0  0  0
   -9.1769  -22.6167   27.8376 O   0  0  0  0  0  0  0  0  0  0  0  0
  -12.3791  -30.5637   24.8180 H   0  0  0  0  0  0  0  0  0  0  0  0
  -11.6961  -29.9977   26.2667 H   0  0  0  0  0  0  0  0  0  0  0  0
  -10.6411  -30.4423   24.9041 H   0  0  0  0  0  0  0  0  0  0  0  0
  -11.4159  -28.4036   23.5947 H   0  0  0  0  0  0  0  0  0  0  0  0
  -10.6259  -28.0597   25.0520 H   0  0  0  0  0  0  0  0  0  0  0  0
  -15.1385  -26.4699   26.2864 H   0  0  0  0  0  0  0  0  0  0  0  0
  -17.7460  -25.9298   26.7947 H   0  0  0  0  0  0  0  0  0  0  0  0
  -19.3947  -24.0701   26.4619 H   0  0  0  0  0  0  0  0  0  0  0  0
  -18.0599  -22.0220   25.2787 H   0  0  0  0  0  0  0  0  0  0  0  0
  -15.1568  -21.7955   24.6428 H   0  0  0  0  0  0  0  0  0  0  0  0
  -13.2703  -22.5496   22.7868 H   0  0  0  0  0  0  0  0  0  0  0  0
  -13.1145  -22.7236   22.7501 H   0  0  0  0  0  0  0  0  0  0  0  0
  -13.1693  -28.5716   27.0453 H   0  0  0  0  0  0  0  0  0  0  0  0
  -10.7707  -28.0581   26.9076 H   0  0  0  0  0  0  0  0  0  0  0  0
  -11.4312  -28.0908   28.4611 H   0  0  0  0  0  0  0  0  0  0  0  0
  -12.8565  -25.0293   27.5526 H   0  0  0  0  0  0  0  0  0  0  0  0
  -11.8785  -22.8557   28.0414 H   0  0  0  0  0  0  0  0  0  0  0  0
   -8.9824  -26.9498   27.7408 H   0  0  0  0  0  0  0  0  0  0  0  0
   -7.1195  -22.5724   27.5113 H   0  0  0  0  0  0  0  0  0  0  0  0
   -7.9094  -23.1155   26.1858 H   0  0  0  0  0  0  0  0  0  0  0  0
  1  2  1  0
  2  3  1  0
  3  4  2  0
  3  5  2  0
  5  6  1  0
  6  7  2  0
  7  8  1  0
  8  9  1  0
  9 10  1  0
 10 11  2  0
 11 12  1  0
 12 13  1  0
 13 14  2  0
 14 15  1  0
 15 16  1  0
 15 17  2  0
  3 18  1  0
 18 19  1  0
 19 20  1  0
 20 21  2  0
 21 22  1  0
 22 23  2  0
 23 24  1  0
 24 25  2  0
 24 26  1  0
 26 27  1  0
 27 28  1  0
 14  6  1  0
 25 20  1  0
 12  8  2  0
 28 23  1  0
  1 29  1  0
  1 30  1  0
  1 31  1  0
  2 32  1  0
  2 33  1  0
  7 34  1  0
  9 35  1  0
 10 36  1  0
 11 37  1  0
 13 38  1  0
 16 39  1  0
 16 40  1  0
 18 41  1  0
 19 42  1  0
 19 43  1  0
 21 44  1  0
 22 45  1  0
 25 46  1  0
 27 47  1  0
 27 48  1  0
M  END
>  <Energy>  (803) 
165.41528393640144

>  <compound_id>  (803) 
1604

>  <target_id>  (803) 
1

>  <reference_id>  (803) 
104

>  <inspiration_ids>  (803) 
[38, 104]

>  <energy_score>  (803) 
179.076624864219

>  <distance_score>  (803) 
6.376715628286063

>  <path>  (803) 
/opt/xchem-fragalysis-2/maxwin/BulkDock/SCRATCH/505732/C1604-P104/C1604-P104.minimised.mol

>  <scratch_subdir>  (803) 
/opt/xchem-fragalysis-2/maxwin/BulkDock/SCRATCH/505732/C1604-P104

>  <fragmenstein_runtime>  (803) 
33.32039403915405

>  <fragmenstein_outcome>  (803) 
too moved

>  <fragmenstein_mode>  (803) 
expansion

>  <fragmenstein_error>  (803) 


$$$$
C2115-P38
     RDKit          3D

 41 44  0  0  0  0  0  0  0  0999 V2000
  -11.1203  -26.2173   25.3368 C   0  0  0  0  0  0  0  0  0  0  0  0
  -11.6077  -25.4359   26.5057 C   0  0  0  0  0  0  0  0  0  0  0  0
  -10.6314  -24.4454   27.1084 C   0  0  0  0  0  0  0  0  0  0  0  0
  -11.4619  -23.2536   27.4996 C   0  0  0  0  0  0  0  0  0  0  0  0
  -12.7946  -23.5956   27.1643 O   0  0  0  0  0  0  0  0  0  0  0  0
  -12.7935  -24.5753   26.1499 C   0  0  0  0  0  0  0  0  0  0  0  0
  -14.0540  -25.4365   25.9289 C   0  0  0  0  0  0  0  0  0  0  0  0
  -14.4151  -25.7235   24.7772 O   0  0  0  0  0  0  0  0  0  0  0  0
  -14.8592  -25.9643   27.1138 C   0  0  0  0  0  0  0  0  0  0  0  0
  -14.0709  -26.4199   28.2695 N   0  0  0  0  0  0  0  0  0  0  0  0
  -13.4798  -25.4366   29.0965 C   0  0  0  0  0  0  0  0  0  0  0  0
  -14.1483  -24.3090   29.5343 C   0  0  0  0  0  0  0  0  0  0  0  0
  -13.7287  -23.2554   30.2900 N   0  0  0  0  0  0  0  0  0  0  0  0
  -12.5570  -23.3417   30.7981 N   0  0  0  0  0  0  0  0  0  0  0  0
  -11.9227  -24.5204   30.6070 C   0  0  0  0  0  0  0  0  0  0  0  0
  -12.2919  -25.5902   29.7627 C   0  0  0  0  0  0  0  0  0  0  0  0
  -11.5069  -26.7503   29.6649 C   0  0  0  0  0  0  0  0  0  0  0  0
  -10.3509  -26.8695   30.3970 C   0  0  0  0  0  0  0  0  0  0  0  0
  -10.1177  -25.8713   31.3078 C   0  0  0  0  0  0  0  0  0  0  0  0
   -9.2056  -25.8512   32.3019 N   0  0  0  0  0  0  0  0  0  0  0  0
   -9.6315  -24.9777   33.2477 C   0  0  0  0  0  0  0  0  0  0  0  0
  -10.5117  -24.1111   32.6638 C   0  0  0  0  0  0  0  0  0  0  0  0
  -10.8747  -24.7344   31.4589 C   0  0  0  0  0  0  0  0  0  0  0  0
  -11.9258  -26.7139   24.7979 H   0  0  0  0  0  0  0  0  0  0  0  0
  -10.4055  -26.9830   25.6421 H   0  0  0  0  0  0  0  0  0  0  0  0
  -10.6596  -25.4998   24.6716 H   0  0  0  0  0  0  0  0  0  0  0  0
  -11.8460  -26.1871   27.2387 H   0  0  0  0  0  0  0  0  0  0  0  0
   -9.9056  -24.1097   26.3804 H   0  0  0  0  0  0  0  0  0  0  0  0
  -10.0635  -24.8577   27.9461 H   0  0  0  0  0  0  0  0  0  0  0  0
  -11.3698  -22.9787   28.5474 H   0  0  0  0  0  0  0  0  0  0  0  0
  -11.1964  -22.3612   26.9331 H   0  0  0  0  0  0  0  0  0  0  0  0
  -12.6224  -24.0270   25.2177 H   0  0  0  0  0  0  0  0  0  0  0  0
  -15.3874  -26.8534   26.7457 H   0  0  0  0  0  0  0  0  0  0  0  0
  -15.6463  -25.2636   27.3872 H   0  0  0  0  0  0  0  0  0  0  0  0
  -13.4074  -27.1267   27.9692 H   0  0  0  0  0  0  0  0  0  0  0  0
  -15.1916  -24.2987   29.3208 H   0  0  0  0  0  0  0  0  0  0  0  0
  -11.7905  -27.5766   29.0276 H   0  0  0  0  0  0  0  0  0  0  0  0
   -9.7197  -27.7397   30.3777 H   0  0  0  0  0  0  0  0  0  0  0  0
   -8.6124  -26.6429   32.4966 H   0  0  0  0  0  0  0  0  0  0  0  0
   -9.2288  -25.0850   34.2387 H   0  0  0  0  0  0  0  0  0  0  0  0
  -11.0335  -23.2750   33.1098 H   0  0  0  0  0  0  0  0  0  0  0  0
  1  2  1  0
  2  3  1  0
  3  4  1  0
  4  5  1  0
  5  6  1  0
  6  7  1  0
  7  8  2  0
  7  9  1  0
  9 10  1  0
 10 11  1  0
 11 12  2  0
 12 13  1  0
 13 14  2  0
 14 15  1  0
 15 16  2  0
 16 17  1  0
 17 18  2  0
 18 19  1  0
 19 20  1  0
 20 21  1  0
 21 22  2  0
 22 23  1  0
  6  2  1  0
 16 11  1  0
 23 19  2  0
 23 15  1  0
  1 24  1  0
  1 25  1  0
  1 26  1  0
  2 27  1  0
  3 28  1  0
  3 29  1  0
  4 30  1  0
  4 31  1  0
  6 32  1  0
  9 33  1  0
  9 34  1  0
 10 35  1  0
 12 36  1  0
 17 37  1  0
 18 38  1  0
 20 39  1  0
 21 40  1  0
 22 41  1  0
M  END
>  <Energy>  (804) 
186.97645498453883

>  <compound_id>  (804) 
2115

>  <target_id>  (804) 
1

>  <reference_id>  (804) 
38

>  <inspiration_ids>  (804) 
[38, 107]

>  <energy_score>  (804) 
-5.260968909040855

>  <distance_score>  (804) 
2.404554071492362

>  <path>  (804) 
/opt/xchem-fragalysis-2/maxwin/BulkDock/SCRATCH/505732/C2115-P38/C2115-P38.minimised.mol

>  <scratch_subdir>  (804) 
/opt/xchem-fragalysis-2/maxwin/BulkDock/SCRATCH/505732/C2115-P38

>  <fragmenstein_runtime>  (804) 
5.233253002166748

>  <fragmenstein_outcome>  (804) 
too moved

>  <fragmenstein_mode>  (804) 
expansion

>  <fragmenstein_error>  (804) 


$$$$
C2115-P107
     RDKit          3D

 41 44  0  0  0  0  0  0  0  0999 V2000
  -12.7047  -26.4124   25.0243 C   0  0  0  0  0  0  0  0  0  0  0  0
  -11.9799  -25.9887   26.2889 C   0  0  0  0  0  0  0  0  0  0  0  0
  -11.1595  -24.7529   26.0006 C   0  0  0  0  0  0  0  0  0  0  0  0
  -12.1983  -23.6676   25.9045 C   0  0  0  0  0  0  0  0  0  0  0  0
  -13.4202  -24.2744   26.3452 O   0  0  0  0  0  0  0  0  0  0  0  0
  -13.1019  -25.4518   27.1040 C   0  0  0  0  0  0  0  0  0  0  0  0
  -12.9029  -25.1595   28.5858 C   0  0  0  0  0  0  0  0  0  0  0  0
  -12.2956  -25.9335   29.3145 O   0  0  0  0  0  0  0  0  0  0  0  0
  -13.7735  -23.9802   28.9431 C   0  0  0  0  0  0  0  0  0  0  0  0
  -13.9273  -23.1847   30.1474 N   0  0  0  0  0  0  0  0  0  0  0  0
  -12.8650  -22.2590   30.4418 C   0  0  0  0  0  0  0  0  0  0  0  0
  -12.1206  -21.7134   29.3982 C   0  0  0  0  0  0  0  0  0  0  0  0
  -11.1818  -22.4258   28.7747 N   0  0  0  0  0  0  0  0  0  0  0  0
  -10.8854  -23.5466   29.3553 N   0  0  0  0  0  0  0  0  0  0  0  0
  -11.2248  -23.6531   30.6874 C   0  0  0  0  0  0  0  0  0  0  0  0
  -12.1024  -22.8485   31.3612 C   0  0  0  0  0  0  0  0  0  0  0  0
  -12.4591  -22.9545   32.7001 C   0  0  0  0  0  0  0  0  0  0  0  0
  -11.7531  -23.8461   33.4578 C   0  0  0  0  0  0  0  0  0  0  0  0
  -10.7677  -24.5731   32.8088 C   0  0  0  0  0  0  0  0  0  0  0  0
   -9.7360  -25.2964   33.2921 N   0  0  0  0  0  0  0  0  0  0  0  0
   -8.8844  -25.5402   32.2588 C   0  0  0  0  0  0  0  0  0  0  0  0
   -9.5480  -25.4350   31.0886 C   0  0  0  0  0  0  0  0  0  0  0  0
  -10.5707  -24.5727   31.4382 C   0  0  0  0  0  0  0  0  0  0  0  0
  -13.5855  -26.9993   25.2619 H   0  0  0  0  0  0  0  0  0  0  0  0
  -12.0303  -26.9170   24.3459 H   0  0  0  0  0  0  0  0  0  0  0  0
  -13.2213  -25.6003   24.5281 H   0  0  0  0  0  0  0  0  0  0  0  0
  -11.4136  -26.7971   26.7554 H   0  0  0  0  0  0  0  0  0  0  0  0
  -10.4586  -24.5447   26.8144 H   0  0  0  0  0  0  0  0  0  0  0  0
  -10.6039  -24.8085   25.0649 H   0  0  0  0  0  0  0  0  0  0  0  0
  -12.3390  -23.3067   24.8824 H   0  0  0  0  0  0  0  0  0  0  0  0
  -11.9560  -22.8108   26.5275 H   0  0  0  0  0  0  0  0  0  0  0  0
  -13.9915  -26.0959   27.0886 H   0  0  0  0  0  0  0  0  0  0  0  0
  -14.7567  -24.3691   28.7033 H   0  0  0  0  0  0  0  0  0  0  0  0
  -13.4789  -23.2510   28.2090 H   0  0  0  0  0  0  0  0  0  0  0  0
  -14.2933  -23.6814   30.9737 H   0  0  0  0  0  0  0  0  0  0  0  0
  -12.3630  -20.7856   28.9202 H   0  0  0  0  0  0  0  0  0  0  0  0
  -13.2600  -22.3650   33.1322 H   0  0  0  0  0  0  0  0  0  0  0  0
  -11.9040  -23.8869   34.5171 H   0  0  0  0  0  0  0  0  0  0  0  0
   -9.5093  -25.4185   34.2634 H   0  0  0  0  0  0  0  0  0  0  0  0
   -7.9068  -25.8755   32.4572 H   0  0  0  0  0  0  0  0  0  0  0  0
   -9.1980  -25.6217   30.0874 H   0  0  0  0  0  0  0  0  0  0  0  0
  1  2  1  0
  2  3  1  0
  3  4  1  0
  4  5  1  0
  5  6  1  0
  6  7  1  0
  7  8  2  0
  7  9  1  0
  9 10  1  0
 10 11  1  0
 11 12  2  0
 12 13  1  0
 13 14  2  0
 14 15  1  0
 15 16  2  0
 16 17  1  0
 17 18  2  0
 18 19  1  0
 19 20  1  0
 20 21  1  0
 21 22  2  0
 22 23  1  0
  6  2  1  0
 16 11  1  0
 23 19  2  0
 23 15  1  0
  1 24  1  0
  1 25  1  0
  1 26  1  0
  2 27  1  0
  3 28  1  0
  3 29  1  0
  4 30  1  0
  4 31  1  0
  6 32  1  0
  9 33  1  0
  9 34  1  0
 10 35  1  0
 12 36  1  0
 17 37  1  0
 18 38  1  0
 20 39  1  0
 21 40  1  0
 22 41  1  0
M  END
>  <Energy>  (805) 
274.49771689827969

>  <compound_id>  (805) 
2115

>  <target_id>  (805) 
1

>  <reference_id>  (805) 
107

>  <inspiration_ids>  (805) 
[38, 107]

>  <energy_score>  (805) 
101.04160722443521

>  <distance_score>  (805) 
3.040348959605261

>  <path>  (805) 
/opt/xchem-fragalysis-2/maxwin/BulkDock/SCRATCH/505732/C2115-P107/C2115-P107.minimised.mol

>  <scratch_subdir>  (805) 
/opt/xchem-fragalysis-2/maxwin/BulkDock/SCRATCH/505732/C2115-P107

>  <fragmenstein_runtime>  (805) 
6.083540678024292

>  <fragmenstein_outcome>  (805) 
too moved

>  <fragmenstein_mode>  (805) 
expansion

>  <fragmenstein_error>  (805) 


$$$$
C2116-P38
     RDKit          3D

 47 49  0  0  0  0  0  0  0  0999 V2000
  -11.7635  -21.7461   30.4541 N   0  0  0  0  0  0  0  0  0  0  0  0
  -12.4620  -22.7468   31.2313 C   0  0  0  0  0  0  0  0  0  0  0  0
  -13.0303  -22.6620   32.2765 O   0  0  0  0  0  0  0  0  0  0  0  0
  -12.3925  -24.0526   30.5380 C   0  0  0  0  0  0  0  0  0  0  0  0
  -11.2409  -24.7951   30.7099 C   0  0  0  0  0  0  0  0  0  0  0  0
  -10.8624  -25.7217   29.7448 C   0  0  0  0  0  0  0  0  0  0  0  0
   -9.7955  -26.5639   29.8989 N   0  0  0  0  0  0  0  0  0  0  0  0
   -9.4810  -27.1288   31.2116 C   0  0  0  0  0  0  0  0  0  0  0  0
  -10.6706  -27.7737   31.9117 C   0  0  0  0  0  0  0  0  0  0  0  0
  -10.3244  -29.5483   32.5151 S   0  0  0  0  0  0  0  0  0  0  0  0
   -8.9180  -29.9010   32.2944 O   0  0  0  0  0  0  0  0  0  0  0  0
  -11.4347  -30.2385   31.8871 O   0  0  0  0  0  0  0  0  0  0  0  0
  -10.2522  -29.7793   34.3371 N   0  0  0  0  0  0  0  0  0  0  0  0
   -9.5560  -31.1568   34.3143 C   0  0  0  0  0  0  0  0  0  0  0  0
   -9.5032  -32.4031   35.9465 C   0  0  0  0  0  0  0  0  0  0  0  0
   -8.9948  -31.7811   37.2326 C   0  0  0  0  0  0  0  0  0  0  0  0
   -9.6435  -32.3620   38.3735 O   0  0  0  0  0  0  0  0  0  0  0  0
   -9.2414  -30.3185   37.3588 C   0  0  0  0  0  0  0  0  0  0  0  0
   -9.6538  -29.4124   36.1679 C   0  0  0  0  0  0  0  0  0  0  0  0
  -11.5841  -25.7197   28.5460 C   0  0  0  0  0  0  0  0  0  0  0  0
  -11.2960  -26.3187   27.3408 N   0  0  0  0  0  0  0  0  0  0  0  0
  -12.2782  -26.0587   26.4345 C   0  0  0  0  0  0  0  0  0  0  0  0
  -13.2756  -25.3841   27.0919 C   0  0  0  0  0  0  0  0  0  0  0  0
  -12.7993  -25.0642   28.3942 C   0  0  0  0  0  0  0  0  0  0  0  0
  -13.2512  -24.2716   29.4604 C   0  0  0  0  0  0  0  0  0  0  0  0
  -11.2907  -22.2081   29.6524 H   0  0  0  0  0  0  0  0  0  0  0  0
  -11.4923  -22.1559   29.5378 H   0  0  0  0  0  0  0  0  0  0  0  0
  -10.6156  -24.6095   31.5797 H   0  0  0  0  0  0  0  0  0  0  0  0
   -9.6845  -27.2564   29.1688 H   0  0  0  0  0  0  0  0  0  0  0  0
   -8.6657  -27.8349   31.0718 H   0  0  0  0  0  0  0  0  0  0  0  0
   -9.0708  -26.3203   31.8314 H   0  0  0  0  0  0  0  0  0  0  0  0
  -11.5384  -27.8704   31.2519 H   0  0  0  0  0  0  0  0  0  0  0  0
  -10.9121  -27.1730   32.7907 H   0  0  0  0  0  0  0  0  0  0  0  0
   -8.6598  -30.6202   34.3506 H   0  0  0  0  0  0  0  0  0  0  0  0
   -9.4405  -31.5849   33.3504 H   0  0  0  0  0  0  0  0  0  0  0  0
  -10.4648  -32.7397   36.3181 H   0  0  0  0  0  0  0  0  0  0  0  0
   -8.9804  -33.3599   35.8038 H   0  0  0  0  0  0  0  0  0  0  0  0
   -7.9501  -31.9842   37.3351 H   0  0  0  0  0  0  0  0  0  0  0  0
   -9.3423  -33.2880   38.4500 H   0  0  0  0  0  0  0  0  0  0  0  0
   -8.3378  -29.8099   37.6777 H   0  0  0  0  0  0  0  0  0  0  0  0
  -10.0132  -30.1979   38.1436 H   0  0  0  0  0  0  0  0  0  0  0  0
   -9.8006  -28.4459   36.4521 H   0  0  0  0  0  0  0  0  0  0  0  0
  -10.5819  -29.5059   36.7556 H   0  0  0  0  0  0  0  0  0  0  0  0
  -10.4376  -26.8114   27.1458 H   0  0  0  0  0  0  0  0  0  0  0  0
  -12.2054  -26.4161   25.4170 H   0  0  0  0  0  0  0  0  0  0  0  0
  -14.2077  -25.0949   26.6293 H   0  0  0  0  0  0  0  0  0  0  0  0
  -14.1933  -23.7445   29.4457 H   0  0  0  0  0  0  0  0  0  0  0  0
  1  2  1  0
  2  3  2  0
  2  4  1  0
  4  5  2  0
  5  6  1  0
  6  7  1  0
  7  8  1  0
  8  9  1  0
  9 10  1  0
 10 11  2  0
 10 12  2  0
 10 13  1  0
 13 14  1  0
 14 15  1  0
 15 16  1  0
 16 17  1  0
 16 18  1  0
 18 19  1  0
  6 20  2  0
 20 21  1  0
 21 22  1  0
 22 23  2  0
 23 24  1  0
 24 25  2  0
 25  4  1  0
 19 13  1  0
 24 20  1  0
  1 26  1  0
  1 27  1  0
  5 28  1  0
  7 29  1  0
  8 30  1  0
  8 31  1  0
  9 32  1  0
  9 33  1  0
 14 34  1  0
 14 35  1  0
 15 36  1  0
 15 37  1  0
 16 38  1  0
 17 39  1  0
 18 40  1  0
 18 41  1  0
 19 42  1  0
 19 43  1  0
 21 44  1  0
 22 45  1  0
 23 46  1  0
 25 47  1  0
M  END
>  <Energy>  (806) 
429.04947706778825

>  <compound_id>  (806) 
2116

>  <target_id>  (806) 
1

>  <reference_id>  (806) 
38

>  <inspiration_ids>  (806) 
[38, 110]

>  <energy_score>  (806) 
326.2231269522021

>  <distance_score>  (806) 
1.8659660950533734

>  <path>  (806) 
/opt/xchem-fragalysis-2/maxwin/BulkDock/SCRATCH/505732/C2116-P38/C2116-P38.minimised.mol

>  <scratch_subdir>  (806) 
/opt/xchem-fragalysis-2/maxwin/BulkDock/SCRATCH/505732/C2116-P38

>  <fragmenstein_runtime>  (806) 
10.859296798706055

>  <fragmenstein_outcome>  (806) 
too moved

>  <fragmenstein_mode>  (806) 
expansion

>  <fragmenstein_error>  (806) 


$$$$
C2116-P110
     RDKit          3D

 47 49  0  0  0  0  0  0  0  0999 V2000
  -13.0057  -22.3525   32.3487 N   0  0  0  0  0  0  0  0  0  0  0  0
  -11.7616  -22.2234   31.6431 C   0  0  0  0  0  0  0  0  0  0  0  0
  -10.9201  -21.3788   31.6982 O   0  0  0  0  0  0  0  0  0  0  0  0
  -11.4831  -23.3213   30.6865 C   0  0  0  0  0  0  0  0  0  0  0  0
  -11.0634  -24.5629   31.1692 C   0  0  0  0  0  0  0  0  0  0  0  0
  -10.8103  -25.6324   30.2978 C   0  0  0  0  0  0  0  0  0  0  0  0
  -10.4434  -26.8845   30.7796 N   0  0  0  0  0  0  0  0  0  0  0  0
  -11.3703  -27.5578   31.7233 C   0  0  0  0  0  0  0  0  0  0  0  0
  -11.6757  -28.9588   31.2551 C   0  0  0  0  0  0  0  0  0  0  0  0
  -12.6679  -30.3870   31.7001 S   0  0  0  0  0  0  0  0  0  0  0  0
  -12.2203  -31.4543   30.8372 O   0  0  0  0  0  0  0  0  0  0  0  0
  -14.0882  -30.0909   31.6411 O   0  0  0  0  0  0  0  0  0  0  0  0
  -12.2153  -30.8173   33.6924 N   0  0  0  0  0  0  0  0  0  0  0  0
  -10.5748  -29.6966   34.5634 C   0  0  0  0  0  0  0  0  0  0  0  0
  -10.4121  -29.8059   36.8105 C   0  0  0  0  0  0  0  0  0  0  0  0
  -12.0318  -30.6674   37.6031 C   0  0  0  0  0  0  0  0  0  0  0  0
  -11.5462  -31.8480   38.2731 O   0  0  0  0  0  0  0  0  0  0  0  0
  -13.7331  -31.2056   36.7692 C   0  0  0  0  0  0  0  0  0  0  0  0
  -14.0780  -30.8656   34.7706 C   0  0  0  0  0  0  0  0  0  0  0  0
  -11.0074  -25.3801   28.9259 C   0  0  0  0  0  0  0  0  0  0  0  0
  -10.8870  -26.2228   27.8416 N   0  0  0  0  0  0  0  0  0  0  0  0
  -11.2902  -25.6015   26.6928 C   0  0  0  0  0  0  0  0  0  0  0  0
  -11.6036  -24.3033   27.0159 C   0  0  0  0  0  0  0  0  0  0  0  0
  -11.4402  -24.1520   28.4217 C   0  0  0  0  0  0  0  0  0  0  0  0
  -11.6445  -23.0842   29.3130 C   0  0  0  0  0  0  0  0  0  0  0  0
  -13.5415  -23.1675   31.9529 H   0  0  0  0  0  0  0  0  0  0  0  0
  -13.4303  -23.2906   32.1267 H   0  0  0  0  0  0  0  0  0  0  0  0
  -10.9196  -24.6984   32.2388 H   0  0  0  0  0  0  0  0  0  0  0  0
  -10.0399  -27.5020   30.0852 H   0  0  0  0  0  0  0  0  0  0  0  0
  -10.9083  -27.5085   32.6934 H   0  0  0  0  0  0  0  0  0  0  0  0
  -12.2491  -26.9719   31.8362 H   0  0  0  0  0  0  0  0  0  0  0  0
  -10.7062  -29.3873   31.3581 H   0  0  0  0  0  0  0  0  0  0  0  0
  -12.0216  -28.8092   30.2295 H   0  0  0  0  0  0  0  0  0  0  0  0
   -9.7247  -30.2108   34.0380 H   0  0  0  0  0  0  0  0  0  0  0  0
  -10.5896  -28.6724   34.1730 H   0  0  0  0  0  0  0  0  0  0  0  0
   -9.5548  -30.4363   37.2155 H   0  0  0  0  0  0  0  0  0  0  0  0
  -10.1829  -29.0029   37.4329 H   0  0  0  0  0  0  0  0  0  0  0  0
  -12.3384  -29.9981   38.4144 H   0  0  0  0  0  0  0  0  0  0  0  0
  -10.9049  -32.2597   37.6680 H   0  0  0  0  0  0  0  0  0  0  0  0
  -14.5241  -30.6337   37.2852 H   0  0  0  0  0  0  0  0  0  0  0  0
  -13.9085  -32.2691   37.0076 H   0  0  0  0  0  0  0  0  0  0  0  0
  -14.7952  -30.0014   34.7742 H   0  0  0  0  0  0  0  0  0  0  0  0
  -14.6304  -31.7126   34.2932 H   0  0  0  0  0  0  0  0  0  0  0  0
  -10.5613  -27.1741   27.9060 H   0  0  0  0  0  0  0  0  0  0  0  0
  -11.2906  -26.1260   25.7471 H   0  0  0  0  0  0  0  0  0  0  0  0
  -11.9367  -23.5381   26.3244 H   0  0  0  0  0  0  0  0  0  0  0  0
  -11.9158  -22.0973   28.9511 H   0  0  0  0  0  0  0  0  0  0  0  0
  1  2  1  0
  2  3  2  0
  2  4  1  0
  4  5  2  0
  5  6  1  0
  6  7  1  0
  7  8  1  0
  8  9  1  0
  9 10  1  0
 10 11  2  0
 10 12  2  0
 10 13  1  0
 13 14  1  0
 14 15  1  0
 15 16  1  0
 16 17  1  0
 16 18  1  0
 18 19  1  0
  6 20  2  0
 20 21  1  0
 21 22  1  0
 22 23  2  0
 23 24  1  0
 24 25  2  0
 25  4  1  0
 19 13  1  0
 24 20  1  0
  1 26  1  0
  1 27  1  0
  5 28  1  0
  7 29  1  0
  8 30  1  0
  8 31  1  0
  9 32  1  0
  9 33  1  0
 14 34  1  0
 14 35  1  0
 15 36  1  0
 15 37  1  0
 16 38  1  0
 17 39  1  0
 18 40  1  0
 18 41  1  0
 19 42  1  0
 19 43  1  0
 21 44  1  0
 22 45  1  0
 23 46  1  0
 25 47  1  0
M  END
>  <Energy>  (807) 
713.68629986112865

>  <compound_id>  (807) 
2116

>  <target_id>  (807) 
1

>  <reference_id>  (807) 
110

>  <inspiration_ids>  (807) 
[38, 110]

>  <energy_score>  (807) 
610.8599497455452

>  <distance_score>  (807) 
2.034291456647546

>  <path>  (807) 
/opt/xchem-fragalysis-2/maxwin/BulkDock/SCRATCH/505732/C2116-P110/C2116-P110.minimised.mol

>  <scratch_subdir>  (807) 
/opt/xchem-fragalysis-2/maxwin/BulkDock/SCRATCH/505732/C2116-P110

>  <fragmenstein_runtime>  (807) 
15.258676052093506

>  <fragmenstein_outcome>  (807) 
too moved

>  <fragmenstein_mode>  (807) 
expansion

>  <fragmenstein_error>  (807) 


$$$$
C499-P38
     RDKit          3D

 54 57  0  0  0  0  0  0  0  0999 V2000
  -11.2101  -22.4047   28.4313 C   0  0  0  0  0  0  0  0  0  0  0  0
  -11.7269  -23.4557   27.5175 C   0  0  0  0  0  0  0  0  0  0  0  0
  -12.9900  -23.9629   27.7365 C   0  0  0  0  0  0  0  0  0  0  0  0
  -13.5803  -24.8559   26.7978 C   0  0  0  0  0  0  0  0  0  0  0  0
  -12.8684  -25.1463   25.6639 C   0  0  0  0  0  0  0  0  0  0  0  0
  -13.4267  -25.9274   24.7325 F   0  0  0  0  0  0  0  0  0  0  0  0
  -11.5211  -24.7882   25.6364 C   0  0  0  0  0  0  0  0  0  0  0  0
  -10.9628  -24.4190   26.8659 C   0  0  0  0  0  0  0  0  0  0  0  0
  -11.2237  -25.5526   27.7888 N   0  0  0  0  0  0  0  0  0  0  0  0
   -9.7899  -25.2404   28.2025 C   0  0  0  0  0  0  0  0  0  0  0  0
   -9.0358  -26.4191   27.9445 N   0  0  0  0  0  0  0  0  0  0  0  0
  -11.3804  -26.9280   27.5385 C   0  0  0  0  0  0  0  0  0  0  0  0
  -11.2531  -27.5535   26.5245 O   0  0  0  0  0  0  0  0  0  0  0  0
  -11.8899  -27.5641   28.8250 C   0  0  0  0  0  0  0  0  0  0  0  0
  -12.7926  -28.8221   28.5527 C   0  0  0  0  0  0  0  0  0  0  0  0
  -13.2053  -29.6900   29.7100 C   0  0  0  0  0  0  0  0  0  0  0  0
  -13.0932  -28.9606   30.9494 N   0  0  0  0  0  0  0  0  0  0  0  0
  -11.7573  -28.3922   31.0994 C   0  0  0  0  0  0  0  0  0  0  0  0
  -11.3802  -27.1674   30.2592 C   0  0  0  0  0  0  0  0  0  0  0  0
   -9.8813  -27.0250   30.7013 C   0  0  0  0  0  0  0  0  0  0  0  0
   -9.3390  -25.8253   31.5451 C   0  0  0  0  0  0  0  0  0  0  0  0
  -10.3354  -24.7804   31.8068 C   0  0  0  0  0  0  0  0  0  0  0  0
  -10.1827  -23.6204   32.5003 N   0  0  0  0  0  0  0  0  0  0  0  0
  -11.3472  -22.8900   32.4446 C   0  0  0  0  0  0  0  0  0  0  0  0
  -12.2751  -23.6240   31.7668 C   0  0  0  0  0  0  0  0  0  0  0  0
  -11.6008  -24.7819   31.3405 C   0  0  0  0  0  0  0  0  0  0  0  0
  -12.1466  -25.8570   30.5569 C   0  0  0  0  0  0  0  0  0  0  0  0
  -11.8443  -21.5207   28.4263 H   0  0  0  0  0  0  0  0  0  0  0  0
  -11.1720  -22.7702   29.4516 H   0  0  0  0  0  0  0  0  0  0  0  0
  -10.2225  -22.0823   28.1291 H   0  0  0  0  0  0  0  0  0  0  0  0
  -13.4779  -23.7406   28.6869 H   0  0  0  0  0  0  0  0  0  0  0  0
  -14.5553  -25.3034   26.9522 H   0  0  0  0  0  0  0  0  0  0  0  0
  -10.8904  -25.1390   24.8373 H   0  0  0  0  0  0  0  0  0  0  0  0
   -9.2540  -24.3396   27.8641 H   0  0  0  0  0  0  0  0  0  0  0  0
   -9.8437  -25.0463   29.2621 H   0  0  0  0  0  0  0  0  0  0  0  0
   -9.2292  -26.8014   27.0215 H   0  0  0  0  0  0  0  0  0  0  0  0
   -8.0459  -26.2943   27.9852 H   0  0  0  0  0  0  0  0  0  0  0  0
  -12.8131  -26.9569   28.8156 H   0  0  0  0  0  0  0  0  0  0  0  0
  -12.3359  -29.4742   27.8054 H   0  0  0  0  0  0  0  0  0  0  0  0
  -13.7373  -28.4581   28.1210 H   0  0  0  0  0  0  0  0  0  0  0  0
  -14.2418  -30.0215   29.5753 H   0  0  0  0  0  0  0  0  0  0  0  0
  -12.6141  -30.6128   29.7538 H   0  0  0  0  0  0  0  0  0  0  0  0
  -13.2105  -29.6835   31.6548 H   0  0  0  0  0  0  0  0  0  0  0  0
  -11.4996  -28.0586   32.0884 H   0  0  0  0  0  0  0  0  0  0  0  0
  -11.0840  -29.2351   31.0155 H   0  0  0  0  0  0  0  0  0  0  0  0
   -9.5518  -27.8976   31.2646 H   0  0  0  0  0  0  0  0  0  0  0  0
   -9.2878  -27.2220   29.8436 H   0  0  0  0  0  0  0  0  0  0  0  0
   -8.9151  -26.1493   32.4940 H   0  0  0  0  0  0  0  0  0  0  0  0
   -8.5112  -25.3719   31.0087 H   0  0  0  0  0  0  0  0  0  0  0  0
   -9.3256  -23.3293   32.9483 H   0  0  0  0  0  0  0  0  0  0  0  0
  -11.4648  -21.9253   32.9093 H   0  0  0  0  0  0  0  0  0  0  0  0
  -13.3108  -23.3611   31.5872 H   0  0  0  0  0  0  0  0  0  0  0  0
  -12.9473  -26.1114   31.1654 H   0  0  0  0  0  0  0  0  0  0  0  0
  -12.6106  -25.3837   29.7047 H   0  0  0  0  0  0  0  0  0  0  0  0
  1  2  1  0
  2  3  2  0
  3  4  1  0
  4  5  2  0
  5  6  1  0
  5  7  1  0
  7  8  2  0
  8  9  1  0
  9 10  1  0
 10 11  1  0
  9 12  1  0
 12 13  2  0
 12 14  1  0
 14 15  1  0
 15 16  1  0
 16 17  1  0
 17 18  1  0
 18 19  1  0
 19 20  1  0
 20 21  1  0
 21 22  1  0
 22 23  1  0
 23 24  1  0
 24 25  2  0
 25 26  1  0
 26 27  1  0
  8  2  1  0
 19 14  1  0
 26 22  2  0
 27 19  1  0
  1 28  1  0
  1 29  1  0
  1 30  1  0
  3 31  1  0
  4 32  1  0
  7 33  1  0
 10 34  1  0
 10 35  1  0
 11 36  1  0
 11 37  1  0
 14 38  1  0
 15 39  1  0
 15 40  1  0
 16 41  1  0
 16 42  1  0
 17 43  1  0
 18 44  1  0
 18 45  1  0
 20 46  1  0
 20 47  1  0
 21 48  1  0
 21 49  1  0
 23 50  1  0
 24 51  1  0
 25 52  1  0
 27 53  1  0
 27 54  1  0
M  END
>  <Energy>  (808) 
270.41215498592646

>  <compound_id>  (808) 
499

>  <target_id>  (808) 
1

>  <reference_id>  (808) 
38

>  <inspiration_ids>  (808) 
[38, 115]

>  <energy_score>  (808) 
187.69260948564352

>  <distance_score>  (808) 
3.54317918966163

>  <path>  (808) 
/opt/xchem-fragalysis-2/maxwin/BulkDock/SCRATCH/505732/C499-P38/C499-P38.minimised.mol

>  <scratch_subdir>  (808) 
/opt/xchem-fragalysis-2/maxwin/BulkDock/SCRATCH/505732/C499-P38

>  <fragmenstein_runtime>  (808) 
15.23622441291809

>  <fragmenstein_outcome>  (808) 
too moved

>  <fragmenstein_mode>  (808) 
expansion

>  <fragmenstein_error>  (808) 


$$$$
C499-P115
     RDKit          3D

 54 57  0  0  0  0  0  0  0  0999 V2000
  -11.5640  -22.3823   27.7549 C   0  0  0  0  0  0  0  0  0  0  0  0
  -11.7643  -23.8485   27.3979 C   0  0  0  0  0  0  0  0  0  0  0  0
  -11.7943  -24.0208   26.0150 C   0  0  0  0  0  0  0  0  0  0  0  0
  -11.4506  -25.2367   25.4970 C   0  0  0  0  0  0  0  0  0  0  0  0
  -11.4410  -26.3535   26.2640 C   0  0  0  0  0  0  0  0  0  0  0  0
  -10.8955  -27.4666   25.7647 F   0  0  0  0  0  0  0  0  0  0  0  0
  -11.8286  -26.2757   27.5721 C   0  0  0  0  0  0  0  0  0  0  0  0
  -11.8170  -25.0251   28.2485 C   0  0  0  0  0  0  0  0  0  0  0  0
  -11.3172  -25.4944   29.6140 N   0  0  0  0  0  0  0  0  0  0  0  0
  -11.1590  -24.0441   29.8244 C   0  0  0  0  0  0  0  0  0  0  0  0
  -12.2754  -23.2272   30.2631 N   0  0  0  0  0  0  0  0  0  0  0  0
  -10.1316  -26.1660   29.9711 C   0  0  0  0  0  0  0  0  0  0  0  0
   -9.1824  -26.4549   29.3116 O   0  0  0  0  0  0  0  0  0  0  0  0
  -10.0840  -26.7221   31.4383 C   0  0  0  0  0  0  0  0  0  0  0  0
   -8.9092  -27.6504   31.6885 C   0  0  0  0  0  0  0  0  0  0  0  0
   -8.9252  -28.5165   32.9222 C   0  0  0  0  0  0  0  0  0  0  0  0
   -8.6335  -27.6210   34.0192 N   0  0  0  0  0  0  0  0  0  0  0  0
   -9.6442  -26.5760   34.0219 C   0  0  0  0  0  0  0  0  0  0  0  0
  -10.0820  -25.8242   32.6744 C   0  0  0  0  0  0  0  0  0  0  0  0
   -9.0959  -24.6540   32.4799 C   0  0  0  0  0  0  0  0  0  0  0  0
   -9.4567  -23.3180   33.2207 C   0  0  0  0  0  0  0  0  0  0  0  0
  -10.4171  -23.5987   34.2746 C   0  0  0  0  0  0  0  0  0  0  0  0
  -10.2968  -23.3640   35.5910 N   0  0  0  0  0  0  0  0  0  0  0  0
  -11.2108  -24.1634   36.2312 C   0  0  0  0  0  0  0  0  0  0  0  0
  -12.0131  -24.7611   35.3196 C   0  0  0  0  0  0  0  0  0  0  0  0
  -11.4400  -24.4795   34.1010 C   0  0  0  0  0  0  0  0  0  0  0  0
  -11.4712  -25.2767   32.9001 C   0  0  0  0  0  0  0  0  0  0  0  0
  -12.3444  -21.9537   28.3723 H   0  0  0  0  0  0  0  0  0  0  0  0
  -10.5920  -22.1538   28.1916 H   0  0  0  0  0  0  0  0  0  0  0  0
  -11.5653  -21.7807   26.8521 H   0  0  0  0  0  0  0  0  0  0  0  0
  -11.8670  -23.1794   25.3329 H   0  0  0  0  0  0  0  0  0  0  0  0
  -11.0633  -25.3056   24.5102 H   0  0  0  0  0  0  0  0  0  0  0  0
  -11.8134  -27.2143   28.1237 H   0  0  0  0  0  0  0  0  0  0  0  0
  -10.6072  -23.9919   30.7423 H   0  0  0  0  0  0  0  0  0  0  0  0
  -10.3724  -23.6827   29.1677 H   0  0  0  0  0  0  0  0  0  0  0  0
  -12.5077  -23.3837   31.2346 H   0  0  0  0  0  0  0  0  0  0  0  0
  -13.0830  -23.4767   29.6859 H   0  0  0  0  0  0  0  0  0  0  0  0
  -10.9261  -27.3755   31.3369 H   0  0  0  0  0  0  0  0  0  0  0  0
   -8.0659  -26.9935   31.8164 H   0  0  0  0  0  0  0  0  0  0  0  0
   -8.6939  -28.2348   30.8267 H   0  0  0  0  0  0  0  0  0  0  0  0
   -9.8744  -29.0439   33.0568 H   0  0  0  0  0  0  0  0  0  0  0  0
   -8.1312  -29.2686   32.8796 H   0  0  0  0  0  0  0  0  0  0  0  0
   -7.7106  -27.2066   33.8706 H   0  0  0  0  0  0  0  0  0  0  0  0
   -9.2588  -25.8315   34.7115 H   0  0  0  0  0  0  0  0  0  0  0  0
  -10.4935  -27.0197   34.5217 H   0  0  0  0  0  0  0  0  0  0  0  0
   -8.1101  -25.0393   32.6994 H   0  0  0  0  0  0  0  0  0  0  0  0
   -8.9684  -24.4636   31.4279 H   0  0  0  0  0  0  0  0  0  0  0  0
   -8.5865  -22.7677   33.5799 H   0  0  0  0  0  0  0  0  0  0  0  0
  -10.0017  -22.6534   32.5384 H   0  0  0  0  0  0  0  0  0  0  0  0
   -9.5780  -22.8100   36.0355 H   0  0  0  0  0  0  0  0  0  0  0  0
  -11.2792  -24.2276   37.2986 H   0  0  0  0  0  0  0  0  0  0  0  0
  -12.7977  -25.4542   35.5496 H   0  0  0  0  0  0  0  0  0  0  0  0
  -12.1510  -26.0779   32.9978 H   0  0  0  0  0  0  0  0  0  0  0  0
  -11.8245  -24.7045   32.0854 H   0  0  0  0  0  0  0  0  0  0  0  0
  1  2  1  0
  2  3  2  0
  3  4  1  0
  4  5  2  0
  5  6  1  0
  5  7  1  0
  7  8  2  0
  8  9  1  0
  9 10  1  0
 10 11  1  0
  9 12  1  0
 12 13  2  0
 12 14  1  0
 14 15  1  0
 15 16  1  0
 16 17  1  0
 17 18  1  0
 18 19  1  0
 19 20  1  0
 20 21  1  0
 21 22  1  0
 22 23  1  0
 23 24  1  0
 24 25  2  0
 25 26  1  0
 26 27  1  0
  8  2  1  0
 19 14  1  0
 26 22  2  0
 27 19  1  0
  1 28  1  0
  1 29  1  0
  1 30  1  0
  3 31  1  0
  4 32  1  0
  7 33  1  0
 10 34  1  0
 10 35  1  0
 11 36  1  0
 11 37  1  0
 14 38  1  0
 15 39  1  0
 15 40  1  0
 16 41  1  0
 16 42  1  0
 17 43  1  0
 18 44  1  0
 18 45  1  0
 20 46  1  0
 20 47  1  0
 21 48  1  0
 21 49  1  0
 23 50  1  0
 24 51  1  0
 25 52  1  0
 27 53  1  0
 27 54  1  0
M  END
>  <Energy>  (809) 
209.77899356056909

>  <compound_id>  (809) 
499

>  <target_id>  (809) 
1

>  <reference_id>  (809) 
115

>  <inspiration_ids>  (809) 
[38, 115]

>  <energy_score>  (809) 
127.05944806028901

>  <distance_score>  (809) 
3.432437853054256

>  <path>  (809) 
/opt/xchem-fragalysis-2/maxwin/BulkDock/SCRATCH/505732/C499-P115/C499-P115.minimised.mol

>  <scratch_subdir>  (809) 
/opt/xchem-fragalysis-2/maxwin/BulkDock/SCRATCH/505732/C499-P115

>  <fragmenstein_runtime>  (809) 
13.645480394363403

>  <fragmenstein_outcome>  (809) 
too moved

>  <fragmenstein_mode>  (809) 
expansion

>  <fragmenstein_error>  (809) 


$$$$
C565-P38
     RDKit          3D

 49 51  0  0  0  0  0  0  0  0999 V2000
  -11.4203  -21.7199   22.8314 C   0  0  0  0  0  0  0  0  0  0  0  0
  -12.7147  -22.2244   23.1798 O   0  0  0  0  0  0  0  0  0  0  0  0
  -12.7417  -23.0576   24.2600 C   0  0  0  0  0  0  0  0  0  0  0  0
  -11.7422  -23.4692   24.8376 O   0  0  0  0  0  0  0  0  0  0  0  0
  -14.1654  -23.3762   24.6466 C   0  0  0  0  0  0  0  0  0  0  0  0
  -14.9406  -24.5898   24.6574 N   0  0  0  0  0  0  0  0  0  0  0  0
  -14.8601  -25.8467   25.5970 C   0  0  0  0  0  0  0  0  0  0  0  0
  -14.0760  -26.1224   26.4780 N   0  0  0  0  0  0  0  0  0  0  0  0
  -12.7083  -25.5959   26.4295 C   0  0  0  0  0  0  0  0  0  0  0  0
  -11.7602  -26.5554   27.1468 C   0  0  0  0  0  0  0  0  0  0  0  0
  -11.5486  -26.0979   28.4711 N   0  0  0  0  0  0  0  0  0  0  0  0
  -10.3022  -25.5289   29.1337 C   0  0  0  0  0  0  0  0  0  0  0  0
   -9.2244  -25.4117   28.7296 O   0  0  0  0  0  0  0  0  0  0  0  0
  -10.6971  -25.0090   30.4389 C   0  0  0  0  0  0  0  0  0  0  0  0
  -10.1639  -25.4846   31.6265 C   0  0  0  0  0  0  0  0  0  0  0  0
  -10.6852  -25.0260   32.8330 C   0  0  0  0  0  0  0  0  0  0  0  0
  -11.7343  -24.0951   32.7722 C   0  0  0  0  0  0  0  0  0  0  0  0
  -12.5153  -23.5543   33.7629 N   0  0  0  0  0  0  0  0  0  0  0  0
  -13.4651  -22.7228   33.2300 C   0  0  0  0  0  0  0  0  0  0  0  0
  -13.3086  -22.7218   31.8716 C   0  0  0  0  0  0  0  0  0  0  0  0
  -12.2383  -23.5912   31.5772 C   0  0  0  0  0  0  0  0  0  0  0  0
  -11.6991  -24.0375   30.3822 C   0  0  0  0  0  0  0  0  0  0  0  0
  -16.0143  -26.7124   25.3464 C   0  0  0  0  0  0  0  0  0  0  0  0
  -16.5495  -27.7248   26.1863 C   0  0  0  0  0  0  0  0  0  0  0  0
  -17.6408  -28.2002   25.5052 C   0  0  0  0  0  0  0  0  0  0  0  0
  -18.6543  -29.2347   25.7762 C   0  0  0  0  0  0  0  0  0  0  0  0
  -17.7626  -27.5265   24.3314 O   0  0  0  0  0  0  0  0  0  0  0  0
  -16.7559  -26.5838   24.2304 N   0  0  0  0  0  0  0  0  0  0  0  0
  -10.6130  -22.4189   23.0469 H   0  0  0  0  0  0  0  0  0  0  0  0
  -11.4116  -21.4936   21.7629 H   0  0  0  0  0  0  0  0  0  0  0  0
  -11.2408  -20.8106   23.3993 H   0  0  0  0  0  0  0  0  0  0  0  0
  -14.8124  -22.5804   24.2590 H   0  0  0  0  0  0  0  0  0  0  0  0
  -14.0881  -23.2404   25.7061 H   0  0  0  0  0  0  0  0  0  0  0  0
  -15.7784  -24.6487   24.0863 H   0  0  0  0  0  0  0  0  0  0  0  0
  -12.6613  -24.5924   26.8609 H   0  0  0  0  0  0  0  0  0  0  0  0
  -12.3850  -25.6003   25.3873 H   0  0  0  0  0  0  0  0  0  0  0  0
  -12.1436  -27.5652   27.2512 H   0  0  0  0  0  0  0  0  0  0  0  0
  -10.7902  -26.5781   26.6426 H   0  0  0  0  0  0  0  0  0  0  0  0
  -12.3082  -26.1236   29.1445 H   0  0  0  0  0  0  0  0  0  0  0  0
   -9.3813  -26.2384   31.6130 H   0  0  0  0  0  0  0  0  0  0  0  0
  -10.3299  -25.4268   33.7736 H   0  0  0  0  0  0  0  0  0  0  0  0
  -12.4626  -23.8285   34.7387 H   0  0  0  0  0  0  0  0  0  0  0  0
  -14.2096  -22.2511   33.8540 H   0  0  0  0  0  0  0  0  0  0  0  0
  -13.9594  -22.2253   31.1674 H   0  0  0  0  0  0  0  0  0  0  0  0
  -12.0806  -23.6706   29.4345 H   0  0  0  0  0  0  0  0  0  0  0  0
  -16.1816  -28.0406   27.1507 H   0  0  0  0  0  0  0  0  0  0  0  0
  -18.5337  -29.6478   26.7824 H   0  0  0  0  0  0  0  0  0  0  0  0
  -18.5643  -30.0549   25.0576 H   0  0  0  0  0  0  0  0  0  0  0  0
  -19.6624  -28.8160   25.6992 H   0  0  0  0  0  0  0  0  0  0  0  0
  1  2  1  0
  2  3  1  0
  3  4  2  0
  3  5  1  0
  5  6  1  0
  6  7  1  0
  7  8  2  3
  8  9  1  0
  9 10  1  0
 10 11  1  0
 11 12  1  0
 12 13  2  0
 12 14  1  0
 14 15  2  0
 15 16  1  0
 16 17  2  0
 17 18  1  0
 18 19  1  0
 19 20  2  0
 20 21  1  0
 21 22  2  0
  7 23  1  0
 23 24  1  0
 24 25  2  0
 25 26  1  0
 25 27  1  0
 27 28  1  0
 22 14  1  0
 28 23  2  0
 21 17  1  0
  1 29  1  0
  1 30  1  0
  1 31  1  0
  5 32  1  0
  5 33  1  0
  6 34  1  0
  9 35  1  0
  9 36  1  0
 10 37  1  0
 10 38  1  0
 11 39  1  0
 15 40  1  0
 16 41  1  0
 18 42  1  0
 19 43  1  0
 20 44  1  0
 22 45  1  0
 24 46  1  0
 26 47  1  0
 26 48  1  0
 26 49  1  0
M  END
>  <Energy>  (810) 
112.96707294797648

>  <compound_id>  (810) 
565

>  <target_id>  (810) 
1

>  <reference_id>  (810) 
38

>  <inspiration_ids>  (810) 
[38, 123]

>  <energy_score>  (810) 
-2.209813657583368

>  <distance_score>  (810) 
2.170626270772456

>  <path>  (810) 
/opt/xchem-fragalysis-2/maxwin/BulkDock/SCRATCH/505732/C565-P38/C565-P38.minimised.mol

>  <scratch_subdir>  (810) 
/opt/xchem-fragalysis-2/maxwin/BulkDock/SCRATCH/505732/C565-P38

>  <fragmenstein_runtime>  (810) 
15.139701128005981

>  <fragmenstein_outcome>  (810) 
too moved

>  <fragmenstein_mode>  (810) 
expansion

>  <fragmenstein_error>  (810) 


$$$$
C565-P123
     RDKit          3D

 49 51  0  0  0  0  0  0  0  0999 V2000
   -8.1725  -31.0210   22.4135 C   0  0  0  0  0  0  0  0  0  0  0  0
   -8.5755  -30.0338   23.3663 O   0  0  0  0  0  0  0  0  0  0  0  0
   -9.1998  -30.5160   24.4691 C   0  0  0  0  0  0  0  0  0  0  0  0
   -9.5049  -31.7058   24.6009 O   0  0  0  0  0  0  0  0  0  0  0  0
   -9.4770  -29.4755   25.5512 C   0  0  0  0  0  0  0  0  0  0  0  0
  -10.2891  -28.2218   25.4816 N   0  0  0  0  0  0  0  0  0  0  0  0
  -11.5710  -27.7901   26.2781 C   0  0  0  0  0  0  0  0  0  0  0  0
  -12.2393  -28.3996   27.0683 N   0  0  0  0  0  0  0  0  0  0  0  0
  -13.3355  -27.8801   27.8339 C   0  0  0  0  0  0  0  0  0  0  0  0
  -13.0116  -28.3495   29.2208 C   0  0  0  0  0  0  0  0  0  0  0  0
  -12.2813  -27.3114   29.9221 N   0  0  0  0  0  0  0  0  0  0  0  0
  -11.0752  -26.4554   29.4739 C   0  0  0  0  0  0  0  0  0  0  0  0
  -10.4345  -26.5044   28.5041 O   0  0  0  0  0  0  0  0  0  0  0  0
  -10.8959  -25.4133   30.4935 C   0  0  0  0  0  0  0  0  0  0  0  0
  -10.3270  -25.8074   31.6910 C   0  0  0  0  0  0  0  0  0  0  0  0
  -10.6592  -25.1694   32.8825 C   0  0  0  0  0  0  0  0  0  0  0  0
  -11.5839  -24.1333   32.8016 C   0  0  0  0  0  0  0  0  0  0  0  0
  -12.2806  -23.4802   33.7928 N   0  0  0  0  0  0  0  0  0  0  0  0
  -13.0290  -22.4731   33.2474 C   0  0  0  0  0  0  0  0  0  0  0  0
  -12.8898  -22.5463   31.8834 C   0  0  0  0  0  0  0  0  0  0  0  0
  -12.0325  -23.6278   31.5830 C   0  0  0  0  0  0  0  0  0  0  0  0
  -11.6880  -24.2766   30.3880 C   0  0  0  0  0  0  0  0  0  0  0  0
  -12.0490  -26.4485   25.8902 C   0  0  0  0  0  0  0  0  0  0  0  0
  -13.3872  -26.1910   25.4800 C   0  0  0  0  0  0  0  0  0  0  0  0
  -13.4501  -24.8384   25.3318 C   0  0  0  0  0  0  0  0  0  0  0  0
  -14.4637  -23.9994   24.6902 C   0  0  0  0  0  0  0  0  0  0  0  0
  -12.2334  -24.2976   25.6095 O   0  0  0  0  0  0  0  0  0  0  0  0
  -11.3333  -25.3197   25.8946 N   0  0  0  0  0  0  0  0  0  0  0  0
   -7.6038  -31.8230   22.8949 H   0  0  0  0  0  0  0  0  0  0  0  0
   -9.0481  -31.4226   21.8957 H   0  0  0  0  0  0  0  0  0  0  0  0
   -7.5211  -30.5331   21.6841 H   0  0  0  0  0  0  0  0  0  0  0  0
   -8.4843  -29.1501   25.8253 H   0  0  0  0  0  0  0  0  0  0  0  0
   -9.9263  -30.1107   26.3138 H   0  0  0  0  0  0  0  0  0  0  0  0
   -9.9363  -27.4378   24.9682 H   0  0  0  0  0  0  0  0  0  0  0  0
  -14.2618  -28.3547   27.4915 H   0  0  0  0  0  0  0  0  0  0  0  0
  -13.4925  -26.7988   27.8475 H   0  0  0  0  0  0  0  0  0  0  0  0
  -12.4900  -29.2877   29.1567 H   0  0  0  0  0  0  0  0  0  0  0  0
  -13.9052  -28.6335   29.7737 H   0  0  0  0  0  0  0  0  0  0  0  0
  -12.5488  -27.0522   30.8612 H   0  0  0  0  0  0  0  0  0  0  0  0
   -9.7229  -26.7067   31.6854 H   0  0  0  0  0  0  0  0  0  0  0  0
  -10.3083  -25.5464   33.8329 H   0  0  0  0  0  0  0  0  0  0  0  0
  -12.2542  -23.7167   34.7806 H   0  0  0  0  0  0  0  0  0  0  0  0
  -13.6395  -21.8417   33.8769 H   0  0  0  0  0  0  0  0  0  0  0  0
  -13.4536  -21.9773   31.1657 H   0  0  0  0  0  0  0  0  0  0  0  0
  -12.1475  -23.9970   29.4464 H   0  0  0  0  0  0  0  0  0  0  0  0
  -14.1743  -26.9098   25.3033 H   0  0  0  0  0  0  0  0  0  0  0  0
  -14.5455  -24.3547   23.6706 H   0  0  0  0  0  0  0  0  0  0  0  0
  -14.1835  -22.9531   24.6238 H   0  0  0  0  0  0  0  0  0  0  0  0
  -15.4495  -24.1189   25.1430 H   0  0  0  0  0  0  0  0  0  0  0  0
  1  2  1  0
  2  3  1  0
  3  4  2  0
  3  5  1  0
  5  6  1  0
  6  7  1  0
  7  8  2  3
  8  9  1  0
  9 10  1  0
 10 11  1  0
 11 12  1  0
 12 13  2  0
 12 14  1  0
 14 15  2  0
 15 16  1  0
 16 17  2  0
 17 18  1  0
 18 19  1  0
 19 20  2  0
 20 21  1  0
 21 22  2  0
  7 23  1  0
 23 24  1  0
 24 25  2  0
 25 26  1  0
 25 27  1  0
 27 28  1  0
 22 14  1  0
 28 23  2  0
 21 17  1  0
  1 29  1  0
  1 30  1  0
  1 31  1  0
  5 32  1  0
  5 33  1  0
  6 34  1  0
  9 35  1  0
  9 36  1  0
 10 37  1  0
 10 38  1  0
 11 39  1  0
 15 40  1  0
 16 41  1  0
 18 42  1  0
 19 43  1  0
 20 44  1  0
 22 45  1  0
 24 46  1  0
 26 47  1  0
 26 48  1  0
 26 49  1  0
M  END
>  <Energy>  (811) 
141.44352266882322

>  <compound_id>  (811) 
565

>  <target_id>  (811) 
1

>  <reference_id>  (811) 
123

>  <inspiration_ids>  (811) 
[38, 123]

>  <energy_score>  (811) 
26.266636063264514

>  <distance_score>  (811) 
2.527015436015806

>  <path>  (811) 
/opt/xchem-fragalysis-2/maxwin/BulkDock/SCRATCH/505732/C565-P123/C565-P123.minimised.mol

>  <scratch_subdir>  (811) 
/opt/xchem-fragalysis-2/maxwin/BulkDock/SCRATCH/505732/C565-P123

>  <fragmenstein_runtime>  (811) 
12.073208808898926

>  <fragmenstein_outcome>  (811) 
too moved

>  <fragmenstein_mode>  (811) 
expansion

>  <fragmenstein_error>  (811) 


$$$$
C2119-P39
     RDKit          3D

 54 57  0  0  0  0  0  0  0  0999 V2000
  -13.0732  -18.1686   35.4005 C   0  0  0  0  0  0  0  0  0  0  0  0
  -13.4291  -19.4651   34.8966 N   0  0  0  0  0  0  0  0  0  0  0  0
  -14.7287  -19.9567   34.2193 C   0  0  0  0  0  0  0  0  0  0  0  0
  -15.6821  -19.3675   33.8960 O   0  0  0  0  0  0  0  0  0  0  0  0
  -14.5825  -21.4530   33.9244 C   0  0  0  0  0  0  0  0  0  0  0  0
  -13.6995  -21.7757   32.7297 C   0  0  0  0  0  0  0  0  0  0  0  0
  -13.7797  -23.2401   32.3740 C   0  0  0  0  0  0  0  0  0  0  0  0
  -13.3100  -23.3915   30.9209 C   0  0  0  0  0  0  0  0  0  0  0  0
  -11.8425  -23.0451   30.6682 C   0  0  0  0  0  0  0  0  0  0  0  0
  -11.4970  -21.7768   31.5313 C   0  0  0  0  0  0  0  0  0  0  0  0
  -12.2124  -21.5374   32.8611 C   0  0  0  0  0  0  0  0  0  0  0  0
  -11.7060  -22.5260   29.1743 C   0  0  0  0  0  0  0  0  0  0  0  0
  -11.6884  -23.6264   28.1988 C   0  0  0  0  0  0  0  0  0  0  0  0
  -12.2113  -23.6420   26.9390 N   0  0  0  0  0  0  0  0  0  0  0  0
  -12.0042  -24.8915   26.4067 C   0  0  0  0  0  0  0  0  0  0  0  0
  -11.2453  -25.6260   27.2894 C   0  0  0  0  0  0  0  0  0  0  0  0
  -11.0185  -24.7983   28.4019 C   0  0  0  0  0  0  0  0  0  0  0  0
  -10.2078  -24.9887   29.6194 C   0  0  0  0  0  0  0  0  0  0  0  0
  -10.9171  -24.3601   30.9402 C   0  0  0  0  0  0  0  0  0  0  0  0
   -9.9360  -23.8533   31.9669 N   0  0  0  0  0  0  0  0  0  0  0  0
  -10.2511  -24.5242   33.1846 N   0  0  0  0  0  0  0  0  0  0  0  0
  -10.4434  -25.8213   32.6474 C   0  0  0  0  0  0  0  0  0  0  0  0
   -9.2055  -26.1735   31.9604 N   0  0  0  0  0  0  0  0  0  0  0  0
  -11.4924  -25.5113   31.6956 N   0  0  0  0  0  0  0  0  0  0  0  0
  -11.8218  -26.6441   30.8623 N   0  0  0  0  0  0  0  0  0  0  0  0
  -13.2729  -18.1518   36.4743 H   0  0  0  0  0  0  0  0  0  0  0  0
  -13.6772  -17.4066   34.9038 H   0  0  0  0  0  0  0  0  0  0  0  0
  -12.0102  -17.9995   35.2212 H   0  0  0  0  0  0  0  0  0  0  0  0
  -12.8380  -20.2596   35.1116 H   0  0  0  0  0  0  0  0  0  0  0  0
  -15.6056  -21.8010   33.7181 H   0  0  0  0  0  0  0  0  0  0  0  0
  -14.2771  -22.0393   34.7770 H   0  0  0  0  0  0  0  0  0  0  0  0
  -14.1319  -21.2121   31.9045 H   0  0  0  0  0  0  0  0  0  0  0  0
  -14.8154  -23.5100   32.5400 H   0  0  0  0  0  0  0  0  0  0  0  0
  -13.2091  -23.8749   33.0579 H   0  0  0  0  0  0  0  0  0  0  0  0
  -13.9589  -22.7565   30.3214 H   0  0  0  0  0  0  0  0  0  0  0  0
  -13.4596  -24.3851   30.5190 H   0  0  0  0  0  0  0  0  0  0  0  0
  -10.4344  -21.6227   31.6928 H   0  0  0  0  0  0  0  0  0  0  0  0
  -11.7288  -20.9403   30.8920 H   0  0  0  0  0  0  0  0  0  0  0  0
  -11.9732  -20.5254   33.1863 H   0  0  0  0  0  0  0  0  0  0  0  0
  -11.8216  -22.2028   33.6321 H   0  0  0  0  0  0  0  0  0  0  0  0
  -10.7801  -21.9565   29.0442 H   0  0  0  0  0  0  0  0  0  0  0  0
  -12.4902  -21.8101   28.9442 H   0  0  0  0  0  0  0  0  0  0  0  0
  -12.6711  -22.8695   26.4612 H   0  0  0  0  0  0  0  0  0  0  0  0
  -12.3962  -25.1447   25.4348 H   0  0  0  0  0  0  0  0  0  0  0  0
  -10.8838  -26.6316   27.1278 H   0  0  0  0  0  0  0  0  0  0  0  0
   -9.9468  -26.0498   29.6892 H   0  0  0  0  0  0  0  0  0  0  0  0
   -9.2377  -24.5485   29.4180 H   0  0  0  0  0  0  0  0  0  0  0  0
   -9.0578  -24.3110   31.6724 H   0  0  0  0  0  0  0  0  0  0  0  0
  -11.1738  -24.2385   33.5188 H   0  0  0  0  0  0  0  0  0  0  0  0
  -10.6797  -26.5066   33.4552 H   0  0  0  0  0  0  0  0  0  0  0  0
   -8.4982  -26.2182   32.6904 H   0  0  0  0  0  0  0  0  0  0  0  0
   -9.3171  -27.1622   31.7251 H   0  0  0  0  0  0  0  0  0  0  0  0
  -12.7020  -26.4455   30.3798 H   0  0  0  0  0  0  0  0  0  0  0  0
  -11.9268  -27.5089   31.3796 H   0  0  0  0  0  0  0  0  0  0  0  0
  1  2  1  0
  2  3  1  0
  3  4  2  0
  3  5  1  0
  5  6  1  0
  6  7  1  0
  7  8  1  0
  8  9  1  0
  9 10  1  0
 10 11  1  0
  9 12  1  0
 12 13  1  0
 13 14  1  0
 14 15  1  0
 15 16  2  0
 16 17  1  0
 17 18  1  0
 18 19  1  0
 19 20  1  0
 20 21  1  0
 21 22  1  0
 22 23  1  0
 22 24  1  0
 24 25  1  0
 11  6  1  0
 17 13  2  0
 24 19  1  0
 19  9  1  0
  1 26  1  0
  1 27  1  0
  1 28  1  0
  2 29  1  0
  5 30  1  0
  5 31  1  0
  6 32  1  0
  7 33  1  0
  7 34  1  0
  8 35  1  0
  8 36  1  0
 10 37  1  0
 10 38  1  0
 11 39  1  0
 11 40  1  0
 12 41  1  0
 12 42  1  0
 14 43  1  0
 15 44  1  0
 16 45  1  0
 18 46  1  0
 18 47  1  0
 20 48  1  0
 21 49  1  0
 22 50  1  0
 23 51  1  0
 23 52  1  0
 25 53  1  0
 25 54  1  0
M  END
>  <Energy>  (812) 
109.04553142217166

>  <compound_id>  (812) 
2119

>  <target_id>  (812) 
1

>  <reference_id>  (812) 
39

>  <inspiration_ids>  (812) 
[39, 16]

>  <energy_score>  (812) 
-13.794037636502622

>  <distance_score>  (812) 
1.8688749337916206

>  <path>  (812) 
/opt/xchem-fragalysis-2/maxwin/BulkDock/SCRATCH/505732/C2119-P39/C2119-P39.minimised.mol

>  <scratch_subdir>  (812) 
/opt/xchem-fragalysis-2/maxwin/BulkDock/SCRATCH/505732/C2119-P39

>  <fragmenstein_runtime>  (812) 
9.372009992599487

>  <fragmenstein_outcome>  (812) 
too moved

>  <fragmenstein_mode>  (812) 
expansion

>  <fragmenstein_error>  (812) 


$$$$
C2119-P16
     RDKit          3D

 54 57  0  0  0  0  0  0  0  0999 V2000
  -14.9032  -18.0576   35.6527 C   0  0  0  0  0  0  0  0  0  0  0  0
  -13.9639  -18.9660   35.0601 N   0  0  0  0  0  0  0  0  0  0  0  0
  -14.1628  -20.0900   34.1812 C   0  0  0  0  0  0  0  0  0  0  0  0
  -15.1531  -20.5044   33.6594 O   0  0  0  0  0  0  0  0  0  0  0  0
  -12.7805  -20.7288   33.9204 C   0  0  0  0  0  0  0  0  0  0  0  0
  -12.5768  -21.8762   32.8946 C   0  0  0  0  0  0  0  0  0  0  0  0
  -13.7799  -22.4177   32.1607 C   0  0  0  0  0  0  0  0  0  0  0  0
  -13.4028  -23.5782   31.2316 C   0  0  0  0  0  0  0  0  0  0  0  0
  -12.1454  -23.5121   30.3112 C   0  0  0  0  0  0  0  0  0  0  0  0
  -11.6839  -22.0429   30.4540 C   0  0  0  0  0  0  0  0  0  0  0  0
  -11.4522  -21.5791   31.8827 C   0  0  0  0  0  0  0  0  0  0  0  0
  -12.6979  -23.5530   28.8248 C   0  0  0  0  0  0  0  0  0  0  0  0
  -12.4560  -24.7842   28.0678 C   0  0  0  0  0  0  0  0  0  0  0  0
  -13.2067  -25.2611   27.0336 N   0  0  0  0  0  0  0  0  0  0  0  0
  -12.5570  -26.3344   26.4827 C   0  0  0  0  0  0  0  0  0  0  0  0
  -11.3849  -26.5278   27.1797 C   0  0  0  0  0  0  0  0  0  0  0  0
  -11.3423  -25.5550   28.2007 C   0  0  0  0  0  0  0  0  0  0  0  0
  -10.3370  -25.1881   29.2158 C   0  0  0  0  0  0  0  0  0  0  0  0
  -10.9707  -24.7161   30.5966 C   0  0  0  0  0  0  0  0  0  0  0  0
   -9.8115  -24.3012   31.4132 N   0  0  0  0  0  0  0  0  0  0  0  0
  -10.1284  -24.4457   32.7855 N   0  0  0  0  0  0  0  0  0  0  0  0
  -11.2553  -25.3158   32.8260 C   0  0  0  0  0  0  0  0  0  0  0  0
  -10.8409  -26.2568   33.8100 N   0  0  0  0  0  0  0  0  0  0  0  0
  -11.4166  -25.8421   31.4545 N   0  0  0  0  0  0  0  0  0  0  0  0
  -10.5573  -27.0562   31.2580 N   0  0  0  0  0  0  0  0  0  0  0  0
  -14.8541  -18.1693   36.7381 H   0  0  0  0  0  0  0  0  0  0  0  0
  -15.9111  -18.2827   35.2973 H   0  0  0  0  0  0  0  0  0  0  0  0
  -14.6226  -17.0392   35.3755 H   0  0  0  0  0  0  0  0  0  0  0  0
  -12.9700  -18.8613   35.2453 H   0  0  0  0  0  0  0  0  0  0  0  0
  -12.4534  -21.0996   34.8921 H   0  0  0  0  0  0  0  0  0  0  0  0
  -12.0793  -19.9158   33.6991 H   0  0  0  0  0  0  0  0  0  0  0  0
  -12.2284  -22.7057   33.5163 H   0  0  0  0  0  0  0  0  0  0  0  0
  -14.2772  -21.6416   31.5733 H   0  0  0  0  0  0  0  0  0  0  0  0
  -14.5223  -22.7847   32.8796 H   0  0  0  0  0  0  0  0  0  0  0  0
  -14.2839  -23.6907   30.6067 H   0  0  0  0  0  0  0  0  0  0  0  0
  -13.3654  -24.4641   31.8349 H   0  0  0  0  0  0  0  0  0  0  0  0
  -10.8484  -21.7997   29.8019 H   0  0  0  0  0  0  0  0  0  0  0  0
  -12.4666  -21.4125   30.0284 H   0  0  0  0  0  0  0  0  0  0  0  0
  -11.1828  -20.5331   31.8947 H   0  0  0  0  0  0  0  0  0  0  0  0
  -10.5405  -22.0326   32.2206 H   0  0  0  0  0  0  0  0  0  0  0  0
  -12.2457  -22.7463   28.2297 H   0  0  0  0  0  0  0  0  0  0  0  0
  -13.7628  -23.3622   28.8206 H   0  0  0  0  0  0  0  0  0  0  0  0
  -14.0656  -24.8647   26.6755 H   0  0  0  0  0  0  0  0  0  0  0  0
  -12.9823  -26.8430   25.6317 H   0  0  0  0  0  0  0  0  0  0  0  0
  -10.6381  -27.2681   26.9388 H   0  0  0  0  0  0  0  0  0  0  0  0
   -9.6109  -25.9975   29.3188 H   0  0  0  0  0  0  0  0  0  0  0  0
   -9.7704  -24.3458   28.8015 H   0  0  0  0  0  0  0  0  0  0  0  0
   -9.0668  -24.9698   31.2016 H   0  0  0  0  0  0  0  0  0  0  0  0
  -10.4112  -23.5692   33.1990 H   0  0  0  0  0  0  0  0  0  0  0  0
  -12.1458  -24.8250   33.2103 H   0  0  0  0  0  0  0  0  0  0  0  0
  -10.5943  -25.6814   34.6022 H   0  0  0  0  0  0  0  0  0  0  0  0
   -9.9520  -26.6232   33.4665 H   0  0  0  0  0  0  0  0  0  0  0  0
  -10.8381  -27.7595   31.9476 H   0  0  0  0  0  0  0  0  0  0  0  0
   -9.5951  -26.8806   31.5746 H   0  0  0  0  0  0  0  0  0  0  0  0
  1  2  1  0
  2  3  1  0
  3  4  2  0
  3  5  1  0
  5  6  1  0
  6  7  1  0
  7  8  1  0
  8  9  1  0
  9 10  1  0
 10 11  1  0
  9 12  1  0
 12 13  1  0
 13 14  1  0
 14 15  1  0
 15 16  2  0
 16 17  1  0
 17 18  1  0
 18 19  1  0
 19 20  1  0
 20 21  1  0
 21 22  1  0
 22 23  1  0
 22 24  1  0
 24 25  1  0
 11  6  1  0
 17 13  2  0
 24 19  1  0
 19  9  1  0
  1 26  1  0
  1 27  1  0
  1 28  1  0
  2 29  1  0
  5 30  1  0
  5 31  1  0
  6 32  1  0
  7 33  1  0
  7 34  1  0
  8 35  1  0
  8 36  1  0
 10 37  1  0
 10 38  1  0
 11 39  1  0
 11 40  1  0
 12 41  1  0
 12 42  1  0
 14 43  1  0
 15 44  1  0
 16 45  1  0
 18 46  1  0
 18 47  1  0
 20 48  1  0
 21 49  1  0
 22 50  1  0
 23 51  1  0
 23 52  1  0
 25 53  1  0
 25 54  1  0
M  END
>  <Energy>  (813) 
101.0183868935183

>  <compound_id>  (813) 
2119

>  <target_id>  (813) 
1

>  <reference_id>  (813) 
16

>  <inspiration_ids>  (813) 
[39, 16]

>  <energy_score>  (813) 
-26.651155077698377

>  <distance_score>  (813) 
1.8504090111597535

>  <path>  (813) 
/opt/xchem-fragalysis-2/maxwin/BulkDock/SCRATCH/505732/C2119-P16/C2119-P16.minimised.mol

>  <scratch_subdir>  (813) 
/opt/xchem-fragalysis-2/maxwin/BulkDock/SCRATCH/505732/C2119-P16

>  <fragmenstein_runtime>  (813) 
7.030467748641968

>  <fragmenstein_outcome>  (813) 
too moved

>  <fragmenstein_mode>  (813) 
expansion

>  <fragmenstein_error>  (813) 


$$$$
C2120-P39
     RDKit          3D

 52 55  0  0  0  0  0  0  0  0999 V2000
  -14.0183  -23.7115   24.6645 C   0  0  0  0  0  0  0  0  0  0  0  0
  -13.2860  -24.7984   25.8845 S   0  0  0  0  0  0  0  0  0  0  0  0
  -12.4049  -25.6939   25.1695 O   0  0  0  0  0  0  0  0  0  0  0  0
  -14.3393  -25.3114   26.7350 O   0  0  0  0  0  0  0  0  0  0  0  0
  -12.2139  -23.8519   26.7725 N   0  0  0  0  0  0  0  0  0  0  0  0
  -12.5755  -23.2877   28.0765 C   0  0  0  0  0  0  0  0  0  0  0  0
  -11.9518  -21.9279   28.2710 C   0  0  0  0  0  0  0  0  0  0  0  0
  -10.8956  -21.8576   29.2691 C   0  0  0  0  0  0  0  0  0  0  0  0
  -11.2787  -22.6934   30.4626 C   0  0  0  0  0  0  0  0  0  0  0  0
  -11.3155  -24.1904   30.0357 C   0  0  0  0  0  0  0  0  0  0  0  0
  -10.2157  -24.7386   28.9968 C   0  0  0  0  0  0  0  0  0  0  0  0
  -10.6834  -26.0980   28.6524 C   0  0  0  0  0  0  0  0  0  0  0  0
  -11.0313  -26.5029   27.4063 N   0  0  0  0  0  0  0  0  0  0  0  0
  -12.1488  -27.2720   27.5912 C   0  0  0  0  0  0  0  0  0  0  0  0
  -12.1839  -27.7718   28.8489 C   0  0  0  0  0  0  0  0  0  0  0  0
  -11.3075  -26.9327   29.5514 C   0  0  0  0  0  0  0  0  0  0  0  0
  -11.3899  -26.6383   30.9805 C   0  0  0  0  0  0  0  0  0  0  0  0
  -11.1829  -25.1261   31.2893 C   0  0  0  0  0  0  0  0  0  0  0  0
   -9.7527  -25.0610   31.7364 N   0  0  0  0  0  0  0  0  0  0  0  0
   -9.7664  -25.1363   33.1429 N   0  0  0  0  0  0  0  0  0  0  0  0
  -11.0155  -24.5479   33.4964 C   0  0  0  0  0  0  0  0  0  0  0  0
  -11.3859  -25.2722   34.6455 N   0  0  0  0  0  0  0  0  0  0  0  0
  -11.9809  -24.8318   32.4861 N   0  0  0  0  0  0  0  0  0  0  0  0
  -13.0300  -23.8226   32.4561 N   0  0  0  0  0  0  0  0  0  0  0  0
  -12.6461  -24.2104   29.2774 C   0  0  0  0  0  0  0  0  0  0  0  0
  -13.2455  -23.0739   24.2325 H   0  0  0  0  0  0  0  0  0  0  0  0
  -14.8261  -23.1229   25.0715 H   0  0  0  0  0  0  0  0  0  0  0  0
  -14.4565  -24.3453   23.8886 H   0  0  0  0  0  0  0  0  0  0  0  0
  -11.7102  -23.2109   26.1561 H   0  0  0  0  0  0  0  0  0  0  0  0
  -13.5831  -23.0554   28.0211 H   0  0  0  0  0  0  0  0  0  0  0  0
  -11.5948  -21.5062   27.3327 H   0  0  0  0  0  0  0  0  0  0  0  0
  -12.6530  -21.2480   28.7331 H   0  0  0  0  0  0  0  0  0  0  0  0
  -10.0323  -22.1736   28.6911 H   0  0  0  0  0  0  0  0  0  0  0  0
  -10.7434  -20.8448   29.6132 H   0  0  0  0  0  0  0  0  0  0  0  0
  -10.6699  -22.4916   31.3487 H   0  0  0  0  0  0  0  0  0  0  0  0
  -12.2590  -22.3251   30.7927 H   0  0  0  0  0  0  0  0  0  0  0  0
   -9.2152  -24.8320   29.4161 H   0  0  0  0  0  0  0  0  0  0  0  0
  -10.1039  -24.1348   28.0956 H   0  0  0  0  0  0  0  0  0  0  0  0
  -10.8631  -25.9977   26.5450 H   0  0  0  0  0  0  0  0  0  0  0  0
  -12.8804  -27.3325   26.8162 H   0  0  0  0  0  0  0  0  0  0  0  0
  -12.9245  -28.4500   29.2422 H   0  0  0  0  0  0  0  0  0  0  0  0
  -10.7260  -27.3020   31.5450 H   0  0  0  0  0  0  0  0  0  0  0  0
  -12.4034  -26.9171   31.2474 H   0  0  0  0  0  0  0  0  0  0  0  0
   -9.3588  -24.1718   31.4836 H   0  0  0  0  0  0  0  0  0  0  0  0
   -9.8320  -26.1243   33.4150 H   0  0  0  0  0  0  0  0  0  0  0  0
  -10.9510  -23.4633   33.5947 H   0  0  0  0  0  0  0  0  0  0  0  0
  -12.3926  -25.3893   34.5306 H   0  0  0  0  0  0  0  0  0  0  0  0
  -11.4601  -24.6107   35.4228 H   0  0  0  0  0  0  0  0  0  0  0  0
  -13.8443  -24.1664   31.9258 H   0  0  0  0  0  0  0  0  0  0  0  0
  -13.4255  -23.6955   33.3933 H   0  0  0  0  0  0  0  0  0  0  0  0
  -13.4464  -23.8380   29.9233 H   0  0  0  0  0  0  0  0  0  0  0  0
  -13.0135  -25.1845   28.9840 H   0  0  0  0  0  0  0  0  0  0  0  0
  1  2  1  0
  2  3  2  0
  2  4  2  0
  2  5  1  0
  5  6  1  0
  6  7  1  0
  7  8  1  0
  8  9  1  0
  9 10  1  0
 10 11  1  0
 11 12  1  0
 12 13  1  0
 13 14  1  0
 14 15  2  0
 15 16  1  0
 16 17  1  0
 17 18  1  0
 18 19  1  0
 19 20  1  0
 20 21  1  0
 21 22  1  0
 21 23  1  0
 23 24  1  0
 10 25  1  0
 25  6  1  0
 18 10  1  0
 16 12  2  0
 23 18  1  0
  1 26  1  0
  1 27  1  0
  1 28  1  0
  5 29  1  0
  6 30  1  0
  7 31  1  0
  7 32  1  0
  8 33  1  0
  8 34  1  0
  9 35  1  0
  9 36  1  0
 11 37  1  0
 11 38  1  0
 13 39  1  0
 14 40  1  0
 15 41  1  0
 17 42  1  0
 17 43  1  0
 19 44  1  0
 20 45  1  0
 21 46  1  0
 22 47  1  0
 22 48  1  0
 24 49  1  0
 24 50  1  0
 25 51  1  0
 25 52  1  0
M  END
>  <Energy>  (814) 
65.987846174549929

>  <compound_id>  (814) 
2120

>  <target_id>  (814) 
1

>  <reference_id>  (814) 
39

>  <inspiration_ids>  (814) 
[39, 32]

>  <energy_score>  (814) 
-43.89058184223586

>  <distance_score>  (814) 
3.227862931664545

>  <path>  (814) 
/opt/xchem-fragalysis-2/maxwin/BulkDock/SCRATCH/505732/C2120-P39/C2120-P39.minimised.mol

>  <scratch_subdir>  (814) 
/opt/xchem-fragalysis-2/maxwin/BulkDock/SCRATCH/505732/C2120-P39

>  <fragmenstein_runtime>  (814) 
8.133759021759033

>  <fragmenstein_outcome>  (814) 
too moved

>  <fragmenstein_mode>  (814) 
expansion

>  <fragmenstein_error>  (814) 


$$$$
C2120-P32
     RDKit          3D

 52 55  0  0  0  0  0  0  0  0999 V2000
  -14.2077  -25.0421   28.0228 C   0  0  0  0  0  0  0  0  0  0  0  0
  -13.7263  -24.3683   26.4434 S   0  0  0  0  0  0  0  0  0  0  0  0
  -14.8416  -23.6134   25.9116 O   0  0  0  0  0  0  0  0  0  0  0  0
  -13.2288  -25.4661   25.6453 O   0  0  0  0  0  0  0  0  0  0  0  0
  -12.4659  -23.2388   26.6874 N   0  0  0  0  0  0  0  0  0  0  0  0
  -12.1490  -22.5179   27.9610 C   0  0  0  0  0  0  0  0  0  0  0  0
  -11.2479  -21.3298   27.7319 C   0  0  0  0  0  0  0  0  0  0  0  0
  -10.9575  -20.5815   29.0340 C   0  0  0  0  0  0  0  0  0  0  0  0
  -10.8357  -21.4841   30.2621 C   0  0  0  0  0  0  0  0  0  0  0  0
  -10.4240  -22.9234   29.8428 C   0  0  0  0  0  0  0  0  0  0  0  0
   -9.2512  -23.0828   28.7750 C   0  0  0  0  0  0  0  0  0  0  0  0
   -9.5686  -24.3487   28.0789 C   0  0  0  0  0  0  0  0  0  0  0  0
  -10.0083  -24.5264   26.8056 N   0  0  0  0  0  0  0  0  0  0  0  0
  -10.5052  -25.7930   26.6890 C   0  0  0  0  0  0  0  0  0  0  0  0
  -10.5273  -26.3677   27.9338 C   0  0  0  0  0  0  0  0  0  0  0  0
   -9.9006  -25.4569   28.8083 C   0  0  0  0  0  0  0  0  0  0  0  0
   -9.8741  -25.4053   30.2962 C   0  0  0  0  0  0  0  0  0  0  0  0
   -9.9336  -23.9359   30.9612 C   0  0  0  0  0  0  0  0  0  0  0  0
   -8.5702  -23.5428   31.4428 N   0  0  0  0  0  0  0  0  0  0  0  0
   -8.7679  -22.6670   32.6077 N   0  0  0  0  0  0  0  0  0  0  0  0
  -10.1322  -22.8864   33.0225 C   0  0  0  0  0  0  0  0  0  0  0  0
  -10.0286  -23.1411   34.4381 N   0  0  0  0  0  0  0  0  0  0  0  0
  -10.6405  -24.0324   32.2460 N   0  0  0  0  0  0  0  0  0  0  0  0
  -10.1498  -25.3080   32.8296 N   0  0  0  0  0  0  0  0  0  0  0  0
  -11.7795  -23.3358   29.1730 C   0  0  0  0  0  0  0  0  0  0  0  0
  -13.4483  -25.7446   28.3642 H   0  0  0  0  0  0  0  0  0  0  0  0
  -15.1414  -25.5896   27.8674 H   0  0  0  0  0  0  0  0  0  0  0  0
  -14.3813  -24.2512   28.7457 H   0  0  0  0  0  0  0  0  0  0  0  0
  -12.6688  -22.5064   25.9810 H   0  0  0  0  0  0  0  0  0  0  0  0
  -12.9868  -21.9969   28.3346 H   0  0  0  0  0  0  0  0  0  0  0  0
  -11.6022  -20.6282   26.9939 H   0  0  0  0  0  0  0  0  0  0  0  0
  -10.3769  -21.6885   27.2260 H   0  0  0  0  0  0  0  0  0  0  0  0
  -10.0475  -20.0168   28.8941 H   0  0  0  0  0  0  0  0  0  0  0  0
  -11.7340  -19.8381   29.2280 H   0  0  0  0  0  0  0  0  0  0  0  0
  -10.2823  -21.0107   31.0674 H   0  0  0  0  0  0  0  0  0  0  0  0
  -11.8240  -21.4981   30.7472 H   0  0  0  0  0  0  0  0  0  0  0  0
   -8.2826  -23.2548   29.2433 H   0  0  0  0  0  0  0  0  0  0  0  0
   -9.0112  -22.2361   28.1516 H   0  0  0  0  0  0  0  0  0  0  0  0
  -10.1193  -23.8042   26.1036 H   0  0  0  0  0  0  0  0  0  0  0  0
  -10.9447  -26.1046   25.7582 H   0  0  0  0  0  0  0  0  0  0  0  0
  -11.0131  -27.2985   28.1944 H   0  0  0  0  0  0  0  0  0  0  0  0
   -8.9531  -25.8698   30.6353 H   0  0  0  0  0  0  0  0  0  0  0  0
  -10.7326  -26.0070   30.6258 H   0  0  0  0  0  0  0  0  0  0  0  0
   -8.1961  -24.4264   31.8254 H   0  0  0  0  0  0  0  0  0  0  0  0
   -8.2086  -23.0750   33.3640 H   0  0  0  0  0  0  0  0  0  0  0  0
  -10.7503  -21.9994   32.8665 H   0  0  0  0  0  0  0  0  0  0  0  0
   -9.4782  -22.3919   34.8168 H   0  0  0  0  0  0  0  0  0  0  0  0
  -10.9628  -22.9456   34.8202 H   0  0  0  0  0  0  0  0  0  0  0  0
  -10.9321  -25.8953   33.0715 H   0  0  0  0  0  0  0  0  0  0  0  0
   -9.5727  -25.1148   33.6643 H   0  0  0  0  0  0  0  0  0  0  0  0
  -12.5501  -23.0251   29.8576 H   0  0  0  0  0  0  0  0  0  0  0  0
  -11.9713  -24.3953   29.0705 H   0  0  0  0  0  0  0  0  0  0  0  0
  1  2  1  0
  2  3  2  0
  2  4  2  0
  2  5  1  0
  5  6  1  0
  6  7  1  0
  7  8  1  0
  8  9  1  0
  9 10  1  0
 10 11  1  0
 11 12  1  0
 12 13  1  0
 13 14  1  0
 14 15  2  0
 15 16  1  0
 16 17  1  0
 17 18  1  0
 18 19  1  0
 19 20  1  0
 20 21  1  0
 21 22  1  0
 21 23  1  0
 23 24  1  0
 10 25  1  0
 25  6  1  0
 18 10  1  0
 16 12  2  0
 23 18  1  0
  1 26  1  0
  1 27  1  0
  1 28  1  0
  5 29  1  0
  6 30  1  0
  7 31  1  0
  7 32  1  0
  8 33  1  0
  8 34  1  0
  9 35  1  0
  9 36  1  0
 11 37  1  0
 11 38  1  0
 13 39  1  0
 14 40  1  0
 15 41  1  0
 17 42  1  0
 17 43  1  0
 19 44  1  0
 20 45  1  0
 21 46  1  0
 22 47  1  0
 22 48  1  0
 24 49  1  0
 24 50  1  0
 25 51  1  0
 25 52  1  0
M  END
>  <Energy>  (815) 
72.642155893689008

>  <compound_id>  (815) 
2120

>  <target_id>  (815) 
1

>  <reference_id>  (815) 
32

>  <inspiration_ids>  (815) 
[39, 32]

>  <energy_score>  (815) 
-37.236272123098786

>  <distance_score>  (815) 
2.8618312477057235

>  <path>  (815) 
/opt/xchem-fragalysis-2/maxwin/BulkDock/SCRATCH/505732/C2120-P32/C2120-P32.minimised.mol

>  <scratch_subdir>  (815) 
/opt/xchem-fragalysis-2/maxwin/BulkDock/SCRATCH/505732/C2120-P32

>  <fragmenstein_runtime>  (815) 
7.596286773681641

>  <fragmenstein_outcome>  (815) 
too moved

>  <fragmenstein_mode>  (815) 
expansion

>  <fragmenstein_error>  (815) 


$$$$
C2122-P39
     RDKit          3D

 52 55  0  0  0  0  0  0  0  0999 V2000
  -16.7836  -25.8712   24.4706 C   0  0  0  0  0  0  0  0  0  0  0  0
  -15.3654  -25.9711   24.5299 O   0  0  0  0  0  0  0  0  0  0  0  0
  -14.8174  -25.4200   25.7436 C   0  0  0  0  0  0  0  0  0  0  0  0
  -13.5111  -24.7760   25.3713 C   0  0  0  0  0  0  0  0  0  0  0  0
  -12.6395  -24.2286   26.4911 C   0  0  0  0  0  0  0  0  0  0  0  0
  -12.6404  -24.9773   27.8564 C   0  0  0  0  0  0  0  0  0  0  0  0
  -13.5470  -24.3640   28.9238 C   0  0  0  0  0  0  0  0  0  0  0  0
  -13.0389  -23.1856   29.6625 C   0  0  0  0  0  0  0  0  0  0  0  0
  -13.5418  -22.8263   30.8861 N   0  0  0  0  0  0  0  0  0  0  0  0
  -12.6124  -22.0512   31.5162 C   0  0  0  0  0  0  0  0  0  0  0  0
  -11.5733  -21.8196   30.6380 C   0  0  0  0  0  0  0  0  0  0  0  0
  -11.7958  -22.6186   29.5010 C   0  0  0  0  0  0  0  0  0  0  0  0
  -10.8846  -23.2351   28.4845 C   0  0  0  0  0  0  0  0  0  0  0  0
  -11.1723  -24.7903   28.5879 C   0  0  0  0  0  0  0  0  0  0  0  0
  -10.2249  -25.6989   27.9766 N   0  0  0  0  0  0  0  0  0  0  0  0
  -10.4652  -26.9383   28.7276 N   0  0  0  0  0  0  0  0  0  0  0  0
  -11.2079  -26.6482   29.9325 C   0  0  0  0  0  0  0  0  0  0  0  0
  -10.6913  -27.3671   31.0475 N   0  0  0  0  0  0  0  0  0  0  0  0
  -11.0708  -25.2351   30.0669 N   0  0  0  0  0  0  0  0  0  0  0  0
   -9.7014  -24.9524   30.5977 N   0  0  0  0  0  0  0  0  0  0  0  0
  -13.1608  -26.4135   27.4677 C   0  0  0  0  0  0  0  0  0  0  0  0
  -14.5429  -26.5266   26.7550 C   0  0  0  0  0  0  0  0  0  0  0  0
  -15.6012  -26.5299   27.7236 O   0  0  0  0  0  0  0  0  0  0  0  0
  -16.3203  -27.7654   27.7515 C   0  0  0  0  0  0  0  0  0  0  0  0
  -17.1222  -26.3562   23.5512 H   0  0  0  0  0  0  0  0  0  0  0  0
  -17.0889  -24.8208   24.4430 H   0  0  0  0  0  0  0  0  0  0  0  0
  -17.2516  -26.3697   25.3211 H   0  0  0  0  0  0  0  0  0  0  0  0
  -15.5286  -24.6963   26.1228 H   0  0  0  0  0  0  0  0  0  0  0  0
  -13.6907  -23.9892   24.6298 H   0  0  0  0  0  0  0  0  0  0  0  0
  -12.9280  -25.5721   24.8968 H   0  0  0  0  0  0  0  0  0  0  0  0
  -11.6258  -24.2156   26.0690 H   0  0  0  0  0  0  0  0  0  0  0  0
  -12.9011  -23.1941   26.6562 H   0  0  0  0  0  0  0  0  0  0  0  0
  -13.4875  -25.0817   29.7215 H   0  0  0  0  0  0  0  0  0  0  0  0
  -14.5764  -24.3062   28.6283 H   0  0  0  0  0  0  0  0  0  0  0  0
  -14.3635  -23.2469   31.3207 H   0  0  0  0  0  0  0  0  0  0  0  0
  -12.7583  -21.7418   32.5425 H   0  0  0  0  0  0  0  0  0  0  0  0
  -10.6907  -21.2688   30.9113 H   0  0  0  0  0  0  0  0  0  0  0  0
  -11.1347  -22.7882   27.5259 H   0  0  0  0  0  0  0  0  0  0  0  0
   -9.8244  -23.0302   28.5274 H   0  0  0  0  0  0  0  0  0  0  0  0
  -10.3936  -25.8017   26.9787 H   0  0  0  0  0  0  0  0  0  0  0  0
  -11.0590  -27.5773   28.2084 H   0  0  0  0  0  0  0  0  0  0  0  0
  -12.2499  -26.9328   29.8828 H   0  0  0  0  0  0  0  0  0  0  0  0
  -10.8427  -26.7853   31.8644 H   0  0  0  0  0  0  0  0  0  0  0  0
   -9.6802  -27.4102   30.9402 H   0  0  0  0  0  0  0  0  0  0  0  0
   -9.0530  -25.4309   29.9615 H   0  0  0  0  0  0  0  0  0  0  0  0
   -9.5658  -25.3788   31.5135 H   0  0  0  0  0  0  0  0  0  0  0  0
  -12.4200  -26.8227   26.7743 H   0  0  0  0  0  0  0  0  0  0  0  0
  -13.2043  -27.1059   28.3005 H   0  0  0  0  0  0  0  0  0  0  0  0
  -14.5691  -27.4839   26.2331 H   0  0  0  0  0  0  0  0  0  0  0  0
  -17.1311  -27.6720   28.4787 H   0  0  0  0  0  0  0  0  0  0  0  0
  -16.7516  -27.9925   26.7735 H   0  0  0  0  0  0  0  0  0  0  0  0
  -15.6574  -28.5776   28.0653 H   0  0  0  0  0  0  0  0  0  0  0  0
  1  2  1  0
  2  3  1  0
  3  4  1  0
  4  5  1  0
  5  6  1  0
  6  7  1  0
  7  8  1  0
  8  9  1  0
  9 10  1  0
 10 11  2  0
 11 12  1  0
 12 13  1  0
 13 14  1  0
 14 15  1  0
 15 16  1  0
 16 17  1  0
 17 18  1  0
 17 19  1  0
 19 20  1  0
  6 21  1  0
 21 22  1  0
 22 23  1  0
 23 24  1  0
 22  3  1  0
 14  6  1  0
 12  8  2  0
 19 14  1  0
  1 25  1  0
  1 26  1  0
  1 27  1  0
  3 28  1  0
  4 29  1  0
  4 30  1  0
  5 31  1  0
  5 32  1  0
  7 33  1  0
  7 34  1  0
  9 35  1  0
 10 36  1  0
 11 37  1  0
 13 38  1  0
 13 39  1  0
 15 40  1  0
 16 41  1  0
 17 42  1  0
 18 43  1  0
 18 44  1  0
 20 45  1  0
 20 46  1  0
 21 47  1  0
 21 48  1  0
 22 49  1  0
 24 50  1  0
 24 51  1  0
 24 52  1  0
M  END
>  <Energy>  (816) 
149.5288917697641

>  <compound_id>  (816) 
2122

>  <target_id>  (816) 
1

>  <reference_id>  (816) 
39

>  <inspiration_ids>  (816) 
[39, 42]

>  <energy_score>  (816) 
-41.17424681472312

>  <distance_score>  (816) 
3.7558177337610323

>  <path>  (816) 
/opt/xchem-fragalysis-2/maxwin/BulkDock/SCRATCH/505732/C2122-P39/C2122-P39.minimised.mol

>  <scratch_subdir>  (816) 
/opt/xchem-fragalysis-2/maxwin/BulkDock/SCRATCH/505732/C2122-P39

>  <fragmenstein_runtime>  (816) 
8.90489912033081

>  <fragmenstein_outcome>  (816) 
too moved

>  <fragmenstein_mode>  (816) 
expansion

>  <fragmenstein_error>  (816) 


$$$$
C2122-P42
     RDKit          3D

 52 55  0  0  0  0  0  0  0  0999 V2000
  -17.8979  -23.7245   25.0008 C   0  0  0  0  0  0  0  0  0  0  0  0
  -16.6177  -24.1266   24.5303 O   0  0  0  0  0  0  0  0  0  0  0  0
  -15.6730  -24.4359   25.5719 C   0  0  0  0  0  0  0  0  0  0  0  0
  -14.3908  -24.8274   24.8624 C   0  0  0  0  0  0  0  0  0  0  0  0
  -13.4288  -25.6571   25.7294 C   0  0  0  0  0  0  0  0  0  0  0  0
  -13.3946  -25.3099   27.2574 C   0  0  0  0  0  0  0  0  0  0  0  0
  -13.2028  -23.7789   27.4301 C   0  0  0  0  0  0  0  0  0  0  0  0
  -12.0711  -23.4271   26.5883 C   0  0  0  0  0  0  0  0  0  0  0  0
  -12.1685  -22.5078   25.5928 N   0  0  0  0  0  0  0  0  0  0  0  0
  -11.4221  -22.9906   24.5541 C   0  0  0  0  0  0  0  0  0  0  0  0
  -10.6265  -24.0126   25.0538 C   0  0  0  0  0  0  0  0  0  0  0  0
  -11.0177  -24.2819   26.3792 C   0  0  0  0  0  0  0  0  0  0  0  0
  -10.7729  -25.4979   27.2175 C   0  0  0  0  0  0  0  0  0  0  0  0
  -12.0496  -25.8906   28.0598 C   0  0  0  0  0  0  0  0  0  0  0  0
  -12.0461  -27.3682   28.1942 N   0  0  0  0  0  0  0  0  0  0  0  0
  -11.8238  -27.7164   29.6207 N   0  0  0  0  0  0  0  0  0  0  0  0
  -11.2727  -26.5321   30.2108 C   0  0  0  0  0  0  0  0  0  0  0  0
   -9.8603  -26.6214   30.0074 N   0  0  0  0  0  0  0  0  0  0  0  0
  -11.9130  -25.4596   29.4670 N   0  0  0  0  0  0  0  0  0  0  0  0
  -11.2261  -24.2081   29.7099 N   0  0  0  0  0  0  0  0  0  0  0  0
  -14.8157  -25.8500   27.6318 C   0  0  0  0  0  0  0  0  0  0  0  0
  -16.0070  -25.5234   26.6235 C   0  0  0  0  0  0  0  0  0  0  0  0
  -17.1595  -25.1232   27.3820 O   0  0  0  0  0  0  0  0  0  0  0  0
  -17.8476  -26.2107   27.9863 C   0  0  0  0  0  0  0  0  0  0  0  0
  -18.4389  -23.2802   24.1604 H   0  0  0  0  0  0  0  0  0  0  0  0
  -17.8161  -22.9730   25.7912 H   0  0  0  0  0  0  0  0  0  0  0  0
  -18.4686  -24.5927   25.3389 H   0  0  0  0  0  0  0  0  0  0  0  0
  -15.5662  -23.4952   26.0778 H   0  0  0  0  0  0  0  0  0  0  0  0
  -13.9430  -23.9251   24.4474 H   0  0  0  0  0  0  0  0  0  0  0  0
  -14.6459  -25.4364   23.9858 H   0  0  0  0  0  0  0  0  0  0  0  0
  -13.8253  -26.6522   25.6835 H   0  0  0  0  0  0  0  0  0  0  0  0
  -12.4682  -25.8104   25.2480 H   0  0  0  0  0  0  0  0  0  0  0  0
  -13.0296  -23.4636   28.4480 H   0  0  0  0  0  0  0  0  0  0  0  0
  -14.0365  -23.2267   27.0533 H   0  0  0  0  0  0  0  0  0  0  0  0
  -12.8480  -21.7601   25.5221 H   0  0  0  0  0  0  0  0  0  0  0  0
  -11.4207  -22.4946   23.5900 H   0  0  0  0  0  0  0  0  0  0  0  0
   -9.8595  -24.4804   24.4656 H   0  0  0  0  0  0  0  0  0  0  0  0
  -10.5579  -26.3375   26.5448 H   0  0  0  0  0  0  0  0  0  0  0  0
   -9.8688  -25.3412   27.8076 H   0  0  0  0  0  0  0  0  0  0  0  0
  -12.8995  -27.7718   27.8148 H   0  0  0  0  0  0  0  0  0  0  0  0
  -12.7228  -27.8422   30.0753 H   0  0  0  0  0  0  0  0  0  0  0  0
  -11.4445  -26.4478   31.2836 H   0  0  0  0  0  0  0  0  0  0  0  0
   -9.5453  -27.4096   30.5677 H   0  0  0  0  0  0  0  0  0  0  0  0
   -9.7900  -27.0139   29.0673 H   0  0  0  0  0  0  0  0  0  0  0  0
  -10.2230  -24.4111   29.8044 H   0  0  0  0  0  0  0  0  0  0  0  0
  -11.4971  -23.8304   30.6292 H   0  0  0  0  0  0  0  0  0  0  0  0
  -14.7698  -26.9475   27.6663 H   0  0  0  0  0  0  0  0  0  0  0  0
  -15.1216  -25.6109   28.6367 H   0  0  0  0  0  0  0  0  0  0  0  0
  -16.2720  -26.4366   26.0724 H   0  0  0  0  0  0  0  0  0  0  0  0
  -18.6988  -25.8088   28.5425 H   0  0  0  0  0  0  0  0  0  0  0  0
  -18.2260  -26.8943   27.2205 H   0  0  0  0  0  0  0  0  0  0  0  0
  -17.2012  -26.7494   28.6845 H   0  0  0  0  0  0  0  0  0  0  0  0
  1  2  1  0
  2  3  1  0
  3  4  1  0
  4  5  1  0
  5  6  1  0
  6  7  1  0
  7  8  1  0
  8  9  1  0
  9 10  1  0
 10 11  2  0
 11 12  1  0
 12 13  1  0
 13 14  1  0
 14 15  1  0
 15 16  1  0
 16 17  1  0
 17 18  1  0
 17 19  1  0
 19 20  1  0
  6 21  1  0
 21 22  1  0
 22 23  1  0
 23 24  1  0
 22  3  1  0
 14  6  1  0
 12  8  2  0
 19 14  1  0
  1 25  1  0
  1 26  1  0
  1 27  1  0
  3 28  1  0
  4 29  1  0
  4 30  1  0
  5 31  1  0
  5 32  1  0
  7 33  1  0
  7 34  1  0
  9 35  1  0
 10 36  1  0
 11 37  1  0
 13 38  1  0
 13 39  1  0
 15 40  1  0
 16 41  1  0
 17 42  1  0
 18 43  1  0
 18 44  1  0
 20 45  1  0
 20 46  1  0
 21 47  1  0
 21 48  1  0
 22 49  1  0
 24 50  1  0
 24 51  1  0
 24 52  1  0
M  END
>  <Energy>  (817) 
144.92707073607977

>  <compound_id>  (817) 
2122

>  <target_id>  (817) 
1

>  <reference_id>  (817) 
42

>  <inspiration_ids>  (817) 
[39, 42]

>  <energy_score>  (817) 
-13.928373658039504

>  <distance_score>  (817) 
3.3627205504177096

>  <path>  (817) 
/opt/xchem-fragalysis-2/maxwin/BulkDock/SCRATCH/505732/C2122-P42/C2122-P42.minimised.mol

>  <scratch_subdir>  (817) 
/opt/xchem-fragalysis-2/maxwin/BulkDock/SCRATCH/505732/C2122-P42

>  <fragmenstein_runtime>  (817) 
5.244543552398682

>  <fragmenstein_outcome>  (817) 
too moved

>  <fragmenstein_mode>  (817) 
expansion

>  <fragmenstein_error>  (817) 


$$$$
C2126-P39
     RDKit          3D

 50 54  0  0  0  0  0  0  0  0999 V2000
   -9.5466  -24.6366   33.2637 O   0  0  0  0  0  0  0  0  0  0  0  0
  -10.7698  -24.5418   33.1226 N   0  0  0  0  0  0  0  0  0  0  0  0
  -11.1795  -25.0381   31.9243 C   0  0  0  0  0  0  0  0  0  0  0  0
  -10.8842  -26.3765   31.6859 C   0  0  0  0  0  0  0  0  0  0  0  0
  -11.2655  -27.1207   30.6360 N   0  0  0  0  0  0  0  0  0  0  0  0
  -11.8265  -26.4770   29.6645 N   0  0  0  0  0  0  0  0  0  0  0  0
  -12.0264  -25.1310   29.8012 C   0  0  0  0  0  0  0  0  0  0  0  0
  -11.8509  -24.3321   30.9502 C   0  0  0  0  0  0  0  0  0  0  0  0
  -12.2642  -22.8280   30.9554 C   0  0  0  0  0  0  0  0  0  0  0  0
  -11.6055  -21.9289   32.0260 C   0  0  0  0  0  0  0  0  0  0  0  0
  -12.2710  -21.8251   33.4025 C   0  0  0  0  0  0  0  0  0  0  0  0
  -13.7588  -21.6712   33.4400 C   0  0  0  0  0  0  0  0  0  0  0  0
  -14.4597  -22.6322   32.5122 C   0  0  0  0  0  0  0  0  0  0  0  0
  -15.9364  -22.2001   32.5930 C   0  0  0  0  0  0  0  0  0  0  0  0
  -16.4047  -21.0098   32.0145 C   0  0  0  0  0  0  0  0  0  0  0  0
  -17.7383  -20.6131   32.1414 C   0  0  0  0  0  0  0  0  0  0  0  0
  -18.6429  -21.3983   32.8596 C   0  0  0  0  0  0  0  0  0  0  0  0
  -20.1003  -21.0316   32.9016 C   0  0  0  0  0  0  0  0  0  0  0  0
  -20.7891  -21.6543   31.8210 O   0  0  0  0  0  0  0  0  0  0  0  0
  -18.1838  -22.5715   33.4675 C   0  0  0  0  0  0  0  0  0  0  0  0
  -16.8446  -22.9558   33.3489 C   0  0  0  0  0  0  0  0  0  0  0  0
  -13.8031  -22.6117   31.1070 C   0  0  0  0  0  0  0  0  0  0  0  0
  -11.8549  -22.2018   29.5380 C   0  0  0  0  0  0  0  0  0  0  0  0
  -11.9844  -23.1660   28.4143 C   0  0  0  0  0  0  0  0  0  0  0  0
  -11.8940  -22.8810   27.0832 N   0  0  0  0  0  0  0  0  0  0  0  0
  -11.9185  -24.0403   26.3496 C   0  0  0  0  0  0  0  0  0  0  0  0
  -12.0486  -25.0893   27.2198 C   0  0  0  0  0  0  0  0  0  0  0  0
  -12.1195  -24.5220   28.5143 C   0  0  0  0  0  0  0  0  0  0  0  0
  -10.3726  -26.9492   32.4293 H   0  0  0  0  0  0  0  0  0  0  0  0
  -10.5564  -22.1990   32.1422 H   0  0  0  0  0  0  0  0  0  0  0  0
  -11.5526  -20.9136   31.6432 H   0  0  0  0  0  0  0  0  0  0  0  0
  -11.8807  -20.9410   33.9128 H   0  0  0  0  0  0  0  0  0  0  0  0
  -12.0287  -22.6882   34.0210 H   0  0  0  0  0  0  0  0  0  0  0  0
  -14.1202  -21.8395   34.4570 H   0  0  0  0  0  0  0  0  0  0  0  0
  -14.0237  -20.6349   33.2291 H   0  0  0  0  0  0  0  0  0  0  0  0
  -14.3404  -23.6359   32.9326 H   0  0  0  0  0  0  0  0  0  0  0  0
  -15.7322  -20.3711   31.4607 H   0  0  0  0  0  0  0  0  0  0  0  0
  -18.0726  -19.6923   31.6679 H   0  0  0  0  0  0  0  0  0  0  0  0
  -20.2386  -19.9480   32.8264 H   0  0  0  0  0  0  0  0  0  0  0  0
  -20.5572  -21.3581   33.8416 H   0  0  0  0  0  0  0  0  0  0  0  0
  -20.1601  -22.2684   31.4022 H   0  0  0  0  0  0  0  0  0  0  0  0
  -18.8664  -23.2059   34.0284 H   0  0  0  0  0  0  0  0  0  0  0  0
  -16.5175  -23.8709   33.8341 H   0  0  0  0  0  0  0  0  0  0  0  0
  -14.0399  -21.6253   30.7419 H   0  0  0  0  0  0  0  0  0  0  0  0
  -14.2809  -23.2488   30.3770 H   0  0  0  0  0  0  0  0  0  0  0  0
  -12.4294  -21.3014   29.3238 H   0  0  0  0  0  0  0  0  0  0  0  0
  -10.8275  -21.8430   29.5555 H   0  0  0  0  0  0  0  0  0  0  0  0
  -11.8517  -21.9584   26.6652 H   0  0  0  0  0  0  0  0  0  0  0  0
  -11.8280  -24.0005   25.2751 H   0  0  0  0  0  0  0  0  0  0  0  0
  -12.0497  -26.1404   26.9568 H   0  0  0  0  0  0  0  0  0  0  0  0
  1  2  2  0
  2  3  1  0
  3  4  2  0
  4  5  1  0
  5  6  2  0
  6  7  1  0
  7  8  2  0
  8  9  1  0
  9 10  1  0
 10 11  1  0
 11 12  1  0
 12 13  1  0
 13 14  1  0
 14 15  2  0
 15 16  1  0
 16 17  2  0
 17 18  1  0
 18 19  1  0
 17 20  1  0
 20 21  2  0
 13 22  1  0
  9 23  1  0
 23 24  1  0
 24 25  1  0
 25 26  1  0
 26 27  2  0
 27 28  1  0
  8  3  1  0
 22  9  1  0
 28 24  2  0
 28  7  1  0
 21 14  1  0
  4 29  1  0
 10 30  1  0
 10 31  1  0
 11 32  1  0
 11 33  1  0
 12 34  1  0
 12 35  1  0
 13 36  1  0
 15 37  1  0
 16 38  1  0
 18 39  1  0
 18 40  1  0
 19 41  1  0
 20 42  1  0
 21 43  1  0
 22 44  1  0
 22 45  1  0
 23 46  1  0
 23 47  1  0
 25 48  1  0
 26 49  1  0
 27 50  1  0
M  END
>  <Energy>  (818) 
120.1465262678813

>  <compound_id>  (818) 
2126

>  <target_id>  (818) 
1

>  <reference_id>  (818) 
39

>  <inspiration_ids>  (818) 
[39, 52]

>  <energy_score>  (818) 
-33.84018914584425

>  <distance_score>  (818) 
1.3640208273558097

>  <path>  (818) 
/opt/xchem-fragalysis-2/maxwin/BulkDock/SCRATCH/505732/C2126-P39/C2126-P39.minimised.mol

>  <scratch_subdir>  (818) 
/opt/xchem-fragalysis-2/maxwin/BulkDock/SCRATCH/505732/C2126-P39

>  <fragmenstein_runtime>  (818) 
3.42692232131958

>  <fragmenstein_outcome>  (818) 
too moved

>  <fragmenstein_mode>  (818) 
expansion

>  <fragmenstein_error>  (818) 


$$$$
C2126-P52
     RDKit          3D

 50 54  0  0  0  0  0  0  0  0999 V2000
  -10.9412  -22.7244   34.3794 O   0  0  0  0  0  0  0  0  0  0  0  0
  -10.6890  -22.4406   33.2025 N   0  0  0  0  0  0  0  0  0  0  0  0
  -10.7007  -23.5359   32.3754 C   0  0  0  0  0  0  0  0  0  0  0  0
  -10.0543  -24.6876   32.8194 C   0  0  0  0  0  0  0  0  0  0  0  0
  -10.0294  -25.8358   32.1280 N   0  0  0  0  0  0  0  0  0  0  0  0
  -10.5048  -25.8361   30.8696 N   0  0  0  0  0  0  0  0  0  0  0  0
  -11.0198  -24.7116   30.3488 C   0  0  0  0  0  0  0  0  0  0  0  0
  -11.2665  -23.5410   31.0909 C   0  0  0  0  0  0  0  0  0  0  0  0
  -12.0670  -22.4219   30.3732 C   0  0  0  0  0  0  0  0  0  0  0  0
  -12.1514  -21.0461   31.0683 C   0  0  0  0  0  0  0  0  0  0  0  0
  -13.2443  -20.8756   32.1507 C   0  0  0  0  0  0  0  0  0  0  0  0
  -14.6798  -21.0667   31.5760 C   0  0  0  0  0  0  0  0  0  0  0  0
  -14.7660  -22.6000   31.0254 C   0  0  0  0  0  0  0  0  0  0  0  0
  -16.5625  -23.6526   30.9789 C   0  0  0  0  0  0  0  0  0  0  0  0
  -17.8157  -22.8600   31.1733 C   0  0  0  0  0  0  0  0  0  0  0  0
  -19.0903  -23.4250   31.2959 C   0  0  0  0  0  0  0  0  0  0  0  0
  -19.2552  -24.8088   31.3019 C   0  0  0  0  0  0  0  0  0  0  0  0
  -20.6258  -25.4182   31.4292 C   0  0  0  0  0  0  0  0  0  0  0  0
  -21.0904  -25.8533   30.1580 O   0  0  0  0  0  0  0  0  0  0  0  0
  -18.1312  -25.6327   31.1878 C   0  0  0  0  0  0  0  0  0  0  0  0
  -16.8320  -25.1043   31.0664 C   0  0  0  0  0  0  0  0  0  0  0  0
  -13.5298  -22.9157   29.9823 C   0  0  0  0  0  0  0  0  0  0  0  0
  -11.3370  -22.1815   28.9665 C   0  0  0  0  0  0  0  0  0  0  0  0
  -11.2686  -23.4909   28.2620 C   0  0  0  0  0  0  0  0  0  0  0  0
  -11.3953  -23.7037   26.9197 N   0  0  0  0  0  0  0  0  0  0  0  0
  -11.4074  -25.0602   26.7027 C   0  0  0  0  0  0  0  0  0  0  0  0
  -11.2540  -25.7032   27.9150 C   0  0  0  0  0  0  0  0  0  0  0  0
  -11.1672  -24.7054   28.9042 C   0  0  0  0  0  0  0  0  0  0  0  0
   -9.5578  -24.7311   33.7831 H   0  0  0  0  0  0  0  0  0  0  0  0
  -11.1790  -20.7358   31.4648 H   0  0  0  0  0  0  0  0  0  0  0  0
  -12.3435  -20.3288   30.2672 H   0  0  0  0  0  0  0  0  0  0  0  0
  -13.1673  -19.9049   32.6422 H   0  0  0  0  0  0  0  0  0  0  0  0
  -13.0860  -21.5731   32.9794 H   0  0  0  0  0  0  0  0  0  0  0  0
  -15.4035  -20.8727   32.3751 H   0  0  0  0  0  0  0  0  0  0  0  0
  -14.8754  -20.3186   30.8145 H   0  0  0  0  0  0  0  0  0  0  0  0
  -14.0770  -22.8096   31.8245 H   0  0  0  0  0  0  0  0  0  0  0  0
  -17.7610  -21.7711   31.2712 H   0  0  0  0  0  0  0  0  0  0  0  0
  -19.9463  -22.7658   31.4262 H   0  0  0  0  0  0  0  0  0  0  0  0
  -21.3438  -24.6942   31.8286 H   0  0  0  0  0  0  0  0  0  0  0  0
  -20.6091  -26.2742   32.1118 H   0  0  0  0  0  0  0  0  0  0  0  0
  -20.6117  -25.3456   29.4814 H   0  0  0  0  0  0  0  0  0  0  0  0
  -18.2574  -26.7153   31.2136 H   0  0  0  0  0  0  0  0  0  0  0  0
  -16.0692  -25.8791   30.9890 H   0  0  0  0  0  0  0  0  0  0  0  0
  -13.6964  -22.4061   29.0651 H   0  0  0  0  0  0  0  0  0  0  0  0
  -13.5330  -23.9686   29.6835 H   0  0  0  0  0  0  0  0  0  0  0  0
  -11.8761  -21.4477   28.3564 H   0  0  0  0  0  0  0  0  0  0  0  0
  -10.3273  -21.7948   29.0996 H   0  0  0  0  0  0  0  0  0  0  0  0
  -11.4963  -22.9882   26.2076 H   0  0  0  0  0  0  0  0  0  0  0  0
  -11.5158  -25.4607   25.7058 H   0  0  0  0  0  0  0  0  0  0  0  0
  -11.2273  -26.7732   28.0659 H   0  0  0  0  0  0  0  0  0  0  0  0
  1  2  2  0
  2  3  1  0
  3  4  2  0
  4  5  1  0
  5  6  2  0
  6  7  1  0
  7  8  2  0
  8  9  1  0
  9 10  1  0
 10 11  1  0
 11 12  1  0
 12 13  1  0
 13 14  1  0
 14 15  2  0
 15 16  1  0
 16 17  2  0
 17 18  1  0
 18 19  1  0
 17 20  1  0
 20 21  2  0
 13 22  1  0
  9 23  1  0
 23 24  1  0
 24 25  1  0
 25 26  1  0
 26 27  2  0
 27 28  1  0
  8  3  1  0
 22  9  1  0
 28 24  2  0
 28  7  1  0
 21 14  1  0
  4 29  1  0
 10 30  1  0
 10 31  1  0
 11 32  1  0
 11 33  1  0
 12 34  1  0
 12 35  1  0
 13 36  1  0
 15 37  1  0
 16 38  1  0
 18 39  1  0
 18 40  1  0
 19 41  1  0
 20 42  1  0
 21 43  1  0
 22 44  1  0
 22 45  1  0
 23 46  1  0
 23 47  1  0
 25 48  1  0
 26 49  1  0
 27 50  1  0
M  END
>  <Energy>  (819) 
255.34532787442578

>  <compound_id>  (819) 
2126

>  <target_id>  (819) 
1

>  <reference_id>  (819) 
52

>  <inspiration_ids>  (819) 
[39, 52]

>  <energy_score>  (819) 
109.22045770585731

>  <distance_score>  (819) 
1.2679607335151284

>  <path>  (819) 
/opt/xchem-fragalysis-2/maxwin/BulkDock/SCRATCH/505732/C2126-P52/C2126-P52.minimised.mol

>  <scratch_subdir>  (819) 
/opt/xchem-fragalysis-2/maxwin/BulkDock/SCRATCH/505732/C2126-P52

>  <fragmenstein_runtime>  (819) 
6.2836527824401855

>  <fragmenstein_outcome>  (819) 
too moved

>  <fragmenstein_mode>  (819) 
expansion

>  <fragmenstein_error>  (819) 


$$$$
C2127-P39
     RDKit          3D

 59 62  0  0  0  0  0  0  0  0999 V2000
  -14.4536  -23.3467   23.7458 C   0  0  0  0  0  0  0  0  0  0  0  0
  -14.4589  -24.3928   24.8072 C   0  0  0  0  0  0  0  0  0  0  0  0
  -15.6081  -25.1471   25.1745 C   0  0  0  0  0  0  0  0  0  0  0  0
  -15.3051  -25.8325   26.3242 C   0  0  0  0  0  0  0  0  0  0  0  0
  -14.0323  -25.4866   26.6708 N   0  0  0  0  0  0  0  0  0  0  0  0
  -13.4257  -24.8098   25.6444 C   0  0  0  0  0  0  0  0  0  0  0  0
  -11.9405  -24.5925   25.6373 C   0  0  0  0  0  0  0  0  0  0  0  0
  -11.3564  -24.0509   26.8826 C   0  0  0  0  0  0  0  0  0  0  0  0
  -10.5955  -24.6546   27.8904 C   0  0  0  0  0  0  0  0  0  0  0  0
  -10.5951  -23.7315   28.9520 C   0  0  0  0  0  0  0  0  0  0  0  0
  -10.8426  -24.1116   30.4768 C   0  0  0  0  0  0  0  0  0  0  0  0
  -11.1464  -22.9380   31.4906 C   0  0  0  0  0  0  0  0  0  0  0  0
  -12.1230  -21.9461   31.0712 N   0  0  0  0  0  0  0  0  0  0  0  0
   -9.7856  -25.1230   31.0228 C   0  0  0  0  0  0  0  0  0  0  0  0
  -10.0373  -26.5192   30.4493 C   0  0  0  0  0  0  0  0  0  0  0  0
  -11.5041  -26.7581   30.6240 C   0  0  0  0  0  0  0  0  0  0  0  0
  -12.2573  -27.8505   29.9164 C   0  0  0  0  0  0  0  0  0  0  0  0
  -12.5869  -29.0444   30.6042 C   0  0  0  0  0  0  0  0  0  0  0  0
  -13.5116  -29.9728   30.1228 C   0  0  0  0  0  0  0  0  0  0  0  0
  -14.2022  -29.6766   28.9688 C   0  0  0  0  0  0  0  0  0  0  0  0
  -13.8449  -28.5414   28.2553 C   0  0  0  0  0  0  0  0  0  0  0  0
  -12.7601  -27.7383   28.6357 C   0  0  0  0  0  0  0  0  0  0  0  0
  -12.3061  -25.1431   30.5603 S   0  0  0  0  0  0  0  0  0  0  0  0
  -12.8298  -24.9090   31.8891 O   0  0  0  0  0  0  0  0  0  0  0  0
  -13.0850  -24.9351   29.3483 O   0  0  0  0  0  0  0  0  0  0  0  0
  -10.4439  -22.4969   28.2602 N   0  0  0  0  0  0  0  0  0  0  0  0
  -10.1971  -20.9275   28.4213 C   0  0  0  0  0  0  0  0  0  0  0  0
   -8.8200  -19.5501   28.3916 N   0  0  0  0  0  0  0  0  0  0  0  0
   -8.5218  -18.2054   28.0201 N   0  0  0  0  0  0  0  0  0  0  0  0
  -11.4240  -22.7501   27.2731 C   0  0  0  0  0  0  0  0  0  0  0  0
  -14.6888  -23.7860   22.7719 H   0  0  0  0  0  0  0  0  0  0  0  0
  -15.2170  -22.5918   23.9628 H   0  0  0  0  0  0  0  0  0  0  0  0
  -13.4925  -22.8295   23.6809 H   0  0  0  0  0  0  0  0  0  0  0  0
  -16.5850  -25.1025   24.7100 H   0  0  0  0  0  0  0  0  0  0  0  0
  -15.9293  -26.4248   26.9773 H   0  0  0  0  0  0  0  0  0  0  0  0
  -13.6331  -25.5623   27.5988 H   0  0  0  0  0  0  0  0  0  0  0  0
  -11.6716  -23.8812   24.8493 H   0  0  0  0  0  0  0  0  0  0  0  0
  -11.4533  -25.5439   25.3892 H   0  0  0  0  0  0  0  0  0  0  0  0
  -10.4525  -25.7209   27.9147 H   0  0  0  0  0  0  0  0  0  0  0  0
  -10.2762  -22.3706   31.7843 H   0  0  0  0  0  0  0  0  0  0  0  0
  -11.4517  -23.3216   32.4708 H   0  0  0  0  0  0  0  0  0  0  0  0
  -12.5437  -22.1868   30.1755 H   0  0  0  0  0  0  0  0  0  0  0  0
  -11.6952  -21.0275   31.0457 H   0  0  0  0  0  0  0  0  0  0  0  0
   -9.8458  -25.1714   32.1186 H   0  0  0  0  0  0  0  0  0  0  0  0
   -8.7711  -24.8704   30.7778 H   0  0  0  0  0  0  0  0  0  0  0  0
   -9.4697  -27.2611   31.0175 H   0  0  0  0  0  0  0  0  0  0  0  0
   -9.7038  -26.6147   29.4213 H   0  0  0  0  0  0  0  0  0  0  0  0
  -11.5452  -27.0298   31.6684 H   0  0  0  0  0  0  0  0  0  0  0  0
  -12.0708  -29.2819   31.5244 H   0  0  0  0  0  0  0  0  0  0  0  0
  -13.7289  -30.8779   30.6830 H   0  0  0  0  0  0  0  0  0  0  0  0
  -15.0034  -30.3216   28.6188 H   0  0  0  0  0  0  0  0  0  0  0  0
  -14.4260  -28.2815   27.3725 H   0  0  0  0  0  0  0  0  0  0  0  0
  -12.4169  -26.9530   27.9809 H   0  0  0  0  0  0  0  0  0  0  0  0
  -10.3761  -20.8553   27.3746 H   0  0  0  0  0  0  0  0  0  0  0  0
  -10.9115  -20.7030   29.2118 H   0  0  0  0  0  0  0  0  0  0  0  0
   -7.8733  -19.9688   28.1582 H   0  0  0  0  0  0  0  0  0  0  0  0
   -8.8954  -17.7360   27.2024 H   0  0  0  0  0  0  0  0  0  0  0  0
   -7.5734  -17.9086   28.2544 H   0  0  0  0  0  0  0  0  0  0  0  0
  -11.8521  -21.9316   26.7378 H   0  0  0  0  0  0  0  0  0  0  0  0
  1  2  1  0
  2  3  1  0
  3  4  2  0
  4  5  1  0
  5  6  1  0
  6  7  1  0
  7  8  1  0
  8  9  1  0
  9 10  2  0
 10 11  1  0
 11 12  1  0
 12 13  1  0
 11 14  1  0
 14 15  1  0
 15 16  1  0
 16 17  1  0
 17 18  2  0
 18 19  1  0
 19 20  2  0
 20 21  1  0
 21 22  2  0
 16 23  1  0
 23 24  2  0
 23 25  2  0
 10 26  1  0
 26 27  1  0
 27 28  1  0
 28 29  1  0
 26 30  1  0
  6  2  2  0
 30  8  2  0
 23 11  1  0
 22 17  1  0
  1 31  1  0
  1 32  1  0
  1 33  1  0
  3 34  1  0
  4 35  1  0
  5 36  1  0
  7 37  1  0
  7 38  1  0
  9 39  1  0
 12 40  1  0
 12 41  1  0
 13 42  1  0
 13 43  1  0
 14 44  1  0
 14 45  1  0
 15 46  1  0
 15 47  1  0
 16 48  1  0
 18 49  1  0
 19 50  1  0
 20 51  1  0
 21 52  1  0
 22 53  1  0
 27 54  1  0
 27 55  1  0
 28 56  1  0
 29 57  1  0
 29 58  1  0
 30 59  1  0
M  END
>  <Energy>  (820) 
465.27899765019424

>  <compound_id>  (820) 
2127

>  <target_id>  (820) 
1

>  <reference_id>  (820) 
39

>  <inspiration_ids>  (820) 
[39, 64]

>  <energy_score>  (820) 
170.16820430851112

>  <distance_score>  (820) 
4.906703059286479

>  <path>  (820) 
/opt/xchem-fragalysis-2/maxwin/BulkDock/SCRATCH/505732/C2127-P39/C2127-P39.minimised.mol

>  <scratch_subdir>  (820) 
/opt/xchem-fragalysis-2/maxwin/BulkDock/SCRATCH/505732/C2127-P39

>  <fragmenstein_runtime>  (820) 
13.487224102020264

>  <fragmenstein_outcome>  (820) 
too moved

>  <fragmenstein_mode>  (820) 
expansion

>  <fragmenstein_error>  (820) 


$$$$
C2127-P64
     RDKit          3D

 59 62  0  0  0  0  0  0  0  0999 V2000
  -14.2487  -23.7822   24.6878 C   0  0  0  0  0  0  0  0  0  0  0  0
  -14.3137  -25.0454   25.4720 C   0  0  0  0  0  0  0  0  0  0  0  0
  -15.5248  -25.7194   25.7958 C   0  0  0  0  0  0  0  0  0  0  0  0
  -15.2129  -26.7990   26.5836 C   0  0  0  0  0  0  0  0  0  0  0  0
  -13.8577  -26.8299   26.7149 N   0  0  0  0  0  0  0  0  0  0  0  0
  -13.2877  -25.7565   26.0816 C   0  0  0  0  0  0  0  0  0  0  0  0
  -11.8142  -25.5186   26.2302 C   0  0  0  0  0  0  0  0  0  0  0  0
  -11.5520  -24.7205   27.4630 C   0  0  0  0  0  0  0  0  0  0  0  0
  -11.1894  -25.1356   28.7633 C   0  0  0  0  0  0  0  0  0  0  0  0
  -11.3306  -24.0671   29.6728 C   0  0  0  0  0  0  0  0  0  0  0  0
  -11.0466  -24.0347   31.2469 C   0  0  0  0  0  0  0  0  0  0  0  0
   -9.6215  -24.6975   31.1196 C   0  0  0  0  0  0  0  0  0  0  0  0
   -8.6131  -24.5922   32.1299 N   0  0  0  0  0  0  0  0  0  0  0  0
  -11.3063  -24.7659   32.5933 C   0  0  0  0  0  0  0  0  0  0  0  0
  -12.3597  -24.2689   33.5583 C   0  0  0  0  0  0  0  0  0  0  0  0
  -12.6512  -22.8328   33.3179 C   0  0  0  0  0  0  0  0  0  0  0  0
  -14.1124  -22.3942   33.3420 C   0  0  0  0  0  0  0  0  0  0  0  0
  -15.2101  -23.2609   33.2429 C   0  0  0  0  0  0  0  0  0  0  0  0
  -16.5215  -22.7888   33.2852 C   0  0  0  0  0  0  0  0  0  0  0  0
  -16.7673  -21.4289   33.4060 C   0  0  0  0  0  0  0  0  0  0  0  0
  -15.7023  -20.5522   33.5561 C   0  0  0  0  0  0  0  0  0  0  0  0
  -14.3960  -21.0402   33.5558 C   0  0  0  0  0  0  0  0  0  0  0  0
  -11.8446  -22.4640   31.7787 S   0  0  0  0  0  0  0  0  0  0  0  0
  -10.8391  -21.4613   32.0436 O   0  0  0  0  0  0  0  0  0  0  0  0
  -12.9153  -22.1054   30.8614 O   0  0  0  0  0  0  0  0  0  0  0  0
  -11.3068  -22.9356   28.8100 N   0  0  0  0  0  0  0  0  0  0  0  0
  -10.9885  -21.5044   29.0536 C   0  0  0  0  0  0  0  0  0  0  0  0
   -9.8951  -21.1218   28.1182 N   0  0  0  0  0  0  0  0  0  0  0  0
   -8.9631  -19.3435   28.3760 N   0  0  0  0  0  0  0  0  0  0  0  0
  -11.6265  -23.3612   27.5442 C   0  0  0  0  0  0  0  0  0  0  0  0
  -13.2496  -23.3400   24.7085 H   0  0  0  0  0  0  0  0  0  0  0  0
  -14.9611  -23.0498   25.0780 H   0  0  0  0  0  0  0  0  0  0  0  0
  -14.5219  -23.9731   23.6452 H   0  0  0  0  0  0  0  0  0  0  0  0
  -16.5251  -25.4147   25.5144 H   0  0  0  0  0  0  0  0  0  0  0  0
  -15.8424  -27.5334   27.0667 H   0  0  0  0  0  0  0  0  0  0  0  0
  -13.3368  -27.5030   27.2568 H   0  0  0  0  0  0  0  0  0  0  0  0
  -11.4267  -24.9897   25.3525 H   0  0  0  0  0  0  0  0  0  0  0  0
  -11.2779  -26.4743   26.2807 H   0  0  0  0  0  0  0  0  0  0  0  0
  -10.9430  -26.1506   29.0486 H   0  0  0  0  0  0  0  0  0  0  0  0
   -9.1410  -24.5825   30.1482 H   0  0  0  0  0  0  0  0  0  0  0  0
   -9.7988  -25.7868   31.0395 H   0  0  0  0  0  0  0  0  0  0  0  0
   -8.7754  -23.8139   32.7578 H   0  0  0  0  0  0  0  0  0  0  0  0
   -8.5403  -25.4748   32.6570 H   0  0  0  0  0  0  0  0  0  0  0  0
  -10.4702  -24.4756   33.2330 H   0  0  0  0  0  0  0  0  0  0  0  0
  -11.1105  -25.8368   32.6238 H   0  0  0  0  0  0  0  0  0  0  0  0
  -11.8501  -24.3445   34.5119 H   0  0  0  0  0  0  0  0  0  0  0  0
  -13.2530  -24.8587   33.7082 H   0  0  0  0  0  0  0  0  0  0  0  0
  -12.1421  -22.2413   34.0786 H   0  0  0  0  0  0  0  0  0  0  0  0
  -15.0886  -24.3345   33.1379 H   0  0  0  0  0  0  0  0  0  0  0  0
  -17.3475  -23.4934   33.2294 H   0  0  0  0  0  0  0  0  0  0  0  0
  -17.7885  -21.0595   33.4391 H   0  0  0  0  0  0  0  0  0  0  0  0
  -15.8927  -19.4982   33.7325 H   0  0  0  0  0  0  0  0  0  0  0  0
  -13.5792  -20.3674   33.8030 H   0  0  0  0  0  0  0  0  0  0  0  0
  -11.9240  -20.9711   28.9174 H   0  0  0  0  0  0  0  0  0  0  0  0
  -10.6167  -21.3048   30.0252 H   0  0  0  0  0  0  0  0  0  0  0  0
  -10.4442  -20.9345   27.2859 H   0  0  0  0  0  0  0  0  0  0  0  0
   -7.9306  -19.3504   28.2864 H   0  0  0  0  0  0  0  0  0  0  0  0
   -9.3860  -18.6443   27.7764 H   0  0  0  0  0  0  0  0  0  0  0  0
  -11.8061  -22.6576   26.7517 H   0  0  0  0  0  0  0  0  0  0  0  0
  1  2  1  0
  2  3  1  0
  3  4  2  0
  4  5  1  0
  5  6  1  0
  6  7  1  0
  7  8  1  0
  8  9  1  0
  9 10  2  0
 10 11  1  0
 11 12  1  0
 12 13  1  0
 11 14  1  0
 14 15  1  0
 15 16  1  0
 16 17  1  0
 17 18  2  0
 18 19  1  0
 19 20  2  0
 20 21  1  0
 21 22  2  0
 16 23  1  0
 23 24  2  0
 23 25  2  0
 10 26  1  0
 26 27  1  0
 27 28  1  0
 28 29  1  0
 26 30  1  0
  6  2  2  0
 30  8  2  0
 23 11  1  0
 22 17  1  0
  1 31  1  0
  1 32  1  0
  1 33  1  0
  3 34  1  0
  4 35  1  0
  5 36  1  0
  7 37  1  0
  7 38  1  0
  9 39  1  0
 12 40  1  0
 12 41  1  0
 13 42  1  0
 13 43  1  0
 14 44  1  0
 14 45  1  0
 15 46  1  0
 15 47  1  0
 16 48  1  0
 18 49  1  0
 19 50  1  0
 20 51  1  0
 21 52  1  0
 22 53  1  0
 27 54  1  0
 27 55  1  0
 28 56  1  0
 29 57  1  0
 29 58  1  0
 30 59  1  0
M  END
>  <Energy>  (821) 
415.34794111006329

>  <compound_id>  (821) 
2127

>  <target_id>  (821) 
1

>  <reference_id>  (821) 
64

>  <inspiration_ids>  (821) 
[39, 64]

>  <energy_score>  (821) 
120.23714776838005

>  <distance_score>  (821) 
5.305032939819955

>  <path>  (821) 
/opt/xchem-fragalysis-2/maxwin/BulkDock/SCRATCH/505732/C2127-P64/C2127-P64.minimised.mol

>  <scratch_subdir>  (821) 
/opt/xchem-fragalysis-2/maxwin/BulkDock/SCRATCH/505732/C2127-P64

>  <fragmenstein_runtime>  (821) 
15.545404195785522

>  <fragmenstein_outcome>  (821) 
too moved

>  <fragmenstein_mode>  (821) 
expansion

>  <fragmenstein_error>  (821) 


$$$$
C2127-P39
     RDKit          2D

  0  0  0  0  0  0  0  0  0  0999 V2000
M  END
>  <compound_id>  (822) 
2127

>  <target_id>  (822) 
1

>  <reference_id>  (822) 
39

>  <inspiration_ids>  (822) 
[39, 75]

>  <energy_score>  (822) 
nan

>  <distance_score>  (822) 
nan

>  <path>  (822) 
/opt/xchem-fragalysis-2/maxwin/BulkDock/SCRATCH/505732/C2127-P39/C2127-P39.minimised.mol

>  <scratch_subdir>  (822) 
/opt/xchem-fragalysis-2/maxwin/BulkDock/SCRATCH/505732/C2127-P39

>  <fragmenstein_runtime>  (822) 
0.21131515502929688

>  <fragmenstein_outcome>  (822) 
crashed

>  <fragmenstein_mode>  (822) 
expansion

>  <fragmenstein_error>  (822) 
PoisonError: None has poison atoms [3, 2, 1, 5, 25, 7, 29, 5]

$$$$
C2128-P39
     RDKit          3D

 38 40  0  0  0  0  0  0  0  0999 V2000
  -14.5750  -22.1348   32.4392 C   0  0  0  0  0  0  0  0  0  0  0  0
  -13.4681  -23.0787   32.7299 C   0  0  0  0  0  0  0  0  0  0  0  0
  -13.3762  -23.8663   33.8912 C   0  0  0  0  0  0  0  0  0  0  0  0
  -12.1741  -24.5302   33.8807 C   0  0  0  0  0  0  0  0  0  0  0  0
  -11.5445  -24.2251   32.7366 N   0  0  0  0  0  0  0  0  0  0  0  0
  -12.3236  -23.3666   32.0147 C   0  0  0  0  0  0  0  0  0  0  0  0
  -11.7289  -22.8227   30.7895 C   0  0  0  0  0  0  0  0  0  0  0  0
  -11.1252  -21.4985   31.2005 C   0  0  0  0  0  0  0  0  0  0  0  0
  -12.6487  -22.6812   29.6038 C   0  0  0  0  0  0  0  0  0  0  0  0
  -12.0685  -23.1791   28.3377 C   0  0  0  0  0  0  0  0  0  0  0  0
  -10.9193  -22.8838   27.7713 N   0  0  0  0  0  0  0  0  0  0  0  0
  -10.5591  -24.0023   27.0185 N   0  0  0  0  0  0  0  0  0  0  0  0
  -11.3384  -24.9596   27.4840 C   0  0  0  0  0  0  0  0  0  0  0  0
  -10.9693  -25.8497   28.5675 C   0  0  0  0  0  0  0  0  0  0  0  0
   -9.8565  -25.5115   29.3416 C   0  0  0  0  0  0  0  0  0  0  0  0
   -9.7481  -25.9355   30.6492 C   0  0  0  0  0  0  0  0  0  0  0  0
  -10.7128  -26.7776   31.1413 C   0  0  0  0  0  0  0  0  0  0  0  0
  -11.7581  -27.2017   30.3374 C   0  0  0  0  0  0  0  0  0  0  0  0
  -11.9003  -26.7458   29.0431 C   0  0  0  0  0  0  0  0  0  0  0  0
  -12.5547  -24.2668   27.6078 N   0  0  0  0  0  0  0  0  0  0  0  0
  -14.3840  -21.1770   32.9329 H   0  0  0  0  0  0  0  0  0  0  0  0
  -15.5270  -22.5177   32.8213 H   0  0  0  0  0  0  0  0  0  0  0  0
  -14.6943  -21.9486   31.3708 H   0  0  0  0  0  0  0  0  0  0  0  0
  -14.1150  -23.9138   34.6774 H   0  0  0  0  0  0  0  0  0  0  0  0
  -11.7169  -25.1988   34.5907 H   0  0  0  0  0  0  0  0  0  0  0  0
  -10.6156  -24.5277   32.4864 H   0  0  0  0  0  0  0  0  0  0  0  0
  -10.9462  -23.5115   30.5060 H   0  0  0  0  0  0  0  0  0  0  0  0
  -10.3014  -21.6337   31.8955 H   0  0  0  0  0  0  0  0  0  0  0  0
  -11.8356  -20.9098   31.7729 H   0  0  0  0  0  0  0  0  0  0  0  0
  -10.7807  -20.9593   30.3224 H   0  0  0  0  0  0  0  0  0  0  0  0
  -13.5984  -23.1943   29.7787 H   0  0  0  0  0  0  0  0  0  0  0  0
  -12.7936  -21.6128   29.4612 H   0  0  0  0  0  0  0  0  0  0  0  0
   -9.1413  -24.8009   28.9519 H   0  0  0  0  0  0  0  0  0  0  0  0
   -8.9192  -25.6284   31.2786 H   0  0  0  0  0  0  0  0  0  0  0  0
  -10.6189  -27.1609   32.1464 H   0  0  0  0  0  0  0  0  0  0  0  0
  -12.4298  -27.9487   30.7317 H   0  0  0  0  0  0  0  0  0  0  0  0
  -12.7500  -27.0479   28.4419 H   0  0  0  0  0  0  0  0  0  0  0  0
  -12.9544  -24.0133   26.7255 H   0  0  0  0  0  0  0  0  0  0  0  0
  1  2  1  0
  2  3  1  0
  3  4  2  0
  4  5  1  0
  5  6  1  0
  6  7  1  0
  7  8  1  0
  7  9  1  0
  9 10  1  0
 10 11  2  0
 11 12  1  0
 12 13  2  0
 13 14  1  0
 14 15  2  0
 15 16  1  0
 16 17  2  0
 17 18  1  0
 18 19  2  0
 13 20  1  0
  6  2  2  0
 20 10  1  0
 19 14  1  0
  1 21  1  0
  1 22  1  0
  1 23  1  0
  3 24  1  0
  4 25  1  0
  5 26  1  0
  7 27  1  0
  8 28  1  0
  8 29  1  0
  8 30  1  0
  9 31  1  0
  9 32  1  0
 15 33  1  0
 16 34  1  0
 17 35  1  0
 18 36  1  0
 19 37  1  0
 20 38  1  0
M  END
>  <Energy>  (823) 
95.932224646349042

>  <compound_id>  (823) 
2128

>  <target_id>  (823) 
1

>  <reference_id>  (823) 
39

>  <inspiration_ids>  (823) 
[39, 82]

>  <energy_score>  (823) 
49.095309531976795

>  <distance_score>  (823) 
2.7339626452049934

>  <path>  (823) 
/opt/xchem-fragalysis-2/maxwin/BulkDock/SCRATCH/505732/C2128-P39/C2128-P39.minimised.mol

>  <scratch_subdir>  (823) 
/opt/xchem-fragalysis-2/maxwin/BulkDock/SCRATCH/505732/C2128-P39

>  <fragmenstein_runtime>  (823) 
3.6994969844818115

>  <fragmenstein_outcome>  (823) 
too moved

>  <fragmenstein_mode>  (823) 
expansion

>  <fragmenstein_error>  (823) 


$$$$
C2128-P82
     RDKit          3D

 38 40  0  0  0  0  0  0  0  0999 V2000
  -16.4697  -22.1898   31.0390 C   0  0  0  0  0  0  0  0  0  0  0  0
  -15.2076  -21.8302   31.7351 C   0  0  0  0  0  0  0  0  0  0  0  0
  -15.2452  -20.9253   32.8296 C   0  0  0  0  0  0  0  0  0  0  0  0
  -14.2270  -21.3363   33.6402 C   0  0  0  0  0  0  0  0  0  0  0  0
  -13.9318  -22.6138   33.1845 N   0  0  0  0  0  0  0  0  0  0  0  0
  -13.9174  -22.4331   31.7890 C   0  0  0  0  0  0  0  0  0  0  0  0
  -12.4963  -22.0352   31.2443 C   0  0  0  0  0  0  0  0  0  0  0  0
  -11.3230  -22.2543   32.1854 C   0  0  0  0  0  0  0  0  0  0  0  0
  -12.0846  -21.9217   29.7469 C   0  0  0  0  0  0  0  0  0  0  0  0
  -11.8826  -23.1433   28.9494 C   0  0  0  0  0  0  0  0  0  0  0  0
  -10.9237  -23.4662   28.0990 N   0  0  0  0  0  0  0  0  0  0  0  0
  -10.7738  -24.8428   28.2181 N   0  0  0  0  0  0  0  0  0  0  0  0
  -11.5274  -25.1649   29.2644 C   0  0  0  0  0  0  0  0  0  0  0  0
  -11.0573  -25.4834   30.6029 C   0  0  0  0  0  0  0  0  0  0  0  0
   -9.7031  -25.5928   30.7725 C   0  0  0  0  0  0  0  0  0  0  0  0
   -9.1511  -25.5671   32.0383 C   0  0  0  0  0  0  0  0  0  0  0  0
   -9.9547  -25.4486   33.1535 C   0  0  0  0  0  0  0  0  0  0  0  0
  -11.3070  -25.2815   33.0195 C   0  0  0  0  0  0  0  0  0  0  0  0
  -11.8410  -25.2760   31.7410 C   0  0  0  0  0  0  0  0  0  0  0  0
  -12.5758  -24.3028   29.1720 N   0  0  0  0  0  0  0  0  0  0  0  0
  -17.2513  -21.4514   31.2569 H   0  0  0  0  0  0  0  0  0  0  0  0
  -16.8451  -23.1506   31.3972 H   0  0  0  0  0  0  0  0  0  0  0  0
  -16.3835  -22.2161   29.9677 H   0  0  0  0  0  0  0  0  0  0  0  0
  -15.9797  -20.1638   33.0570 H   0  0  0  0  0  0  0  0  0  0  0  0
  -13.7896  -20.9123   34.5241 H   0  0  0  0  0  0  0  0  0  0  0  0
  -13.2883  -23.2230   33.6696 H   0  0  0  0  0  0  0  0  0  0  0  0
  -12.5494  -21.0062   31.5225 H   0  0  0  0  0  0  0  0  0  0  0  0
  -10.7366  -23.1145   31.9227 H   0  0  0  0  0  0  0  0  0  0  0  0
  -11.5815  -22.3375   33.2391 H   0  0  0  0  0  0  0  0  0  0  0  0
  -10.6649  -21.3781   32.1225 H   0  0  0  0  0  0  0  0  0  0  0  0
  -12.7125  -21.2467   29.1909 H   0  0  0  0  0  0  0  0  0  0  0  0
  -11.1225  -21.3967   29.7280 H   0  0  0  0  0  0  0  0  0  0  0  0
   -9.0959  -25.5612   29.8795 H   0  0  0  0  0  0  0  0  0  0  0  0
   -8.0852  -25.6649   32.1843 H   0  0  0  0  0  0  0  0  0  0  0  0
   -9.4886  -25.5003   34.1192 H   0  0  0  0  0  0  0  0  0  0  0  0
  -11.9330  -25.1112   33.8877 H   0  0  0  0  0  0  0  0  0  0  0  0
  -12.8814  -25.0009   31.6545 H   0  0  0  0  0  0  0  0  0  0  0  0
  -13.3991  -24.3150   29.7600 H   0  0  0  0  0  0  0  0  0  0  0  0
  1  2  1  0
  2  3  1  0
  3  4  2  0
  4  5  1  0
  5  6  1  0
  6  7  1  0
  7  8  1  0
  7  9  1  0
  9 10  1  0
 10 11  2  0
 11 12  1  0
 12 13  2  0
 13 14  1  0
 14 15  2  0
 15 16  1  0
 16 17  2  0
 17 18  1  0
 18 19  2  0
 13 20  1  0
  6  2  2  0
 20 10  1  0
 19 14  1  0
  1 21  1  0
  1 22  1  0
  1 23  1  0
  3 24  1  0
  4 25  1  0
  5 26  1  0
  7 27  1  0
  8 28  1  0
  8 29  1  0
  8 30  1  0
  9 31  1  0
  9 32  1  0
 15 33  1  0
 16 34  1  0
 17 35  1  0
 18 36  1  0
 19 37  1  0
 20 38  1  0
M  END
>  <Energy>  (824) 
160.65501867052248

>  <compound_id>  (824) 
2128

>  <target_id>  (824) 
1

>  <reference_id>  (824) 
82

>  <inspiration_ids>  (824) 
[39, 82]

>  <energy_score>  (824) 
112.06401250776406

>  <distance_score>  (824) 
3.5657348581788186

>  <path>  (824) 
/opt/xchem-fragalysis-2/maxwin/BulkDock/SCRATCH/505732/C2128-P82/C2128-P82.minimised.mol

>  <scratch_subdir>  (824) 
/opt/xchem-fragalysis-2/maxwin/BulkDock/SCRATCH/505732/C2128-P82

>  <fragmenstein_runtime>  (824) 
4.812499761581421

>  <fragmenstein_outcome>  (824) 
too moved

>  <fragmenstein_mode>  (824) 
expansion

>  <fragmenstein_error>  (824) 


$$$$
C2129-P39
     RDKit          3D

 42 43  0  0  0  0  0  0  0  0999 V2000
   -9.3203  -25.4009   31.6477 C   0  0  0  0  0  0  0  0  0  0  0  0
  -10.1322  -24.5171   32.5679 C   0  0  0  0  0  0  0  0  0  0  0  0
  -11.6268  -24.5520   32.2564 C   0  0  0  0  0  0  0  0  0  0  0  0
  -12.5273  -24.1757   33.7395 S   0  0  0  0  0  0  0  0  0  0  0  0
  -13.4670  -22.7577   33.7783 C   0  0  0  0  0  0  0  0  0  0  0  0
  -14.7845  -22.7633   33.7683 N   0  0  0  0  0  0  0  0  0  0  0  0
  -15.2001  -21.4704   33.9859 N   0  0  0  0  0  0  0  0  0  0  0  0
  -14.1131  -20.7537   34.1834 C   0  0  0  0  0  0  0  0  0  0  0  0
  -14.1416  -19.4116   34.6744 C   0  0  0  0  0  0  0  0  0  0  0  0
  -15.2221  -18.6628   35.1047 C   0  0  0  0  0  0  0  0  0  0  0  0
  -14.7358  -17.4024   35.5256 C   0  0  0  0  0  0  0  0  0  0  0  0
  -13.3745  -17.4103   35.3331 C   0  0  0  0  0  0  0  0  0  0  0  0
  -13.0159  -18.6420   34.8447 N   0  0  0  0  0  0  0  0  0  0  0  0
  -12.9654  -21.4903   33.9752 O   0  0  0  0  0  0  0  0  0  0  0  0
  -12.1653  -24.2510   30.9413 N   0  0  0  0  0  0  0  0  0  0  0  0
  -11.9516  -25.3334   29.9802 C   0  0  0  0  0  0  0  0  0  0  0  0
  -11.8990  -22.9280   30.4152 C   0  0  0  0  0  0  0  0  0  0  0  0
  -11.9573  -22.7274   28.8653 C   0  0  0  0  0  0  0  0  0  0  0  0
  -10.9200  -23.3902   28.0534 N   0  0  0  0  0  0  0  0  0  0  0  0
  -12.8148  -21.9740   31.0221 N   0  0  0  0  0  0  0  0  0  0  0  0
  -14.1848  -22.4011   30.9193 N   0  0  0  0  0  0  0  0  0  0  0  0
   -9.2241  -24.9880   30.6459 H   0  0  0  0  0  0  0  0  0  0  0  0
   -9.7475  -26.4040   31.5599 H   0  0  0  0  0  0  0  0  0  0  0  0
   -8.3147  -25.5095   32.0582 H   0  0  0  0  0  0  0  0  0  0  0  0
   -9.9512  -24.9289   33.5688 H   0  0  0  0  0  0  0  0  0  0  0  0
   -9.7590  -23.4945   32.5766 H   0  0  0  0  0  0  0  0  0  0  0  0
  -11.7651  -25.6153   32.2626 H   0  0  0  0  0  0  0  0  0  0  0  0
  -16.2538  -18.9948   35.1184 H   0  0  0  0  0  0  0  0  0  0  0  0
  -15.3201  -16.5733   35.9064 H   0  0  0  0  0  0  0  0  0  0  0  0
  -12.6223  -16.6471   35.4844 H   0  0  0  0  0  0  0  0  0  0  0  0
  -12.0711  -18.9060   34.5885 H   0  0  0  0  0  0  0  0  0  0  0  0
  -12.6480  -25.2491   29.1392 H   0  0  0  0  0  0  0  0  0  0  0  0
  -10.9395  -25.3832   29.5788 H   0  0  0  0  0  0  0  0  0  0  0  0
  -12.1624  -26.3188   30.4119 H   0  0  0  0  0  0  0  0  0  0  0  0
  -10.9359  -22.5804   30.7548 H   0  0  0  0  0  0  0  0  0  0  0  0
  -11.8983  -21.6565   28.6425 H   0  0  0  0  0  0  0  0  0  0  0  0
  -12.9205  -23.0843   28.4918 H   0  0  0  0  0  0  0  0  0  0  0  0
  -10.0613  -22.8519   28.1325 H   0  0  0  0  0  0  0  0  0  0  0  0
  -11.2086  -23.2987   27.0765 H   0  0  0  0  0  0  0  0  0  0  0  0
  -12.5052  -21.8203   31.9783 H   0  0  0  0  0  0  0  0  0  0  0  0
  -14.2901  -23.4217   31.1017 H   0  0  0  0  0  0  0  0  0  0  0  0
  -14.8159  -22.0206   31.6385 H   0  0  0  0  0  0  0  0  0  0  0  0
  1  2  1  0
  2  3  1  0
  3  4  1  0
  4  5  1  0
  5  6  2  0
  6  7  1  0
  7  8  2  0
  8  9  1  0
  9 10  2  0
 10 11  1  0
 11 12  2  0
 12 13  1  0
  8 14  1  0
  3 15  1  0
 15 16  1  0
 15 17  1  0
 17 18  1  0
 18 19  1  0
 17 20  1  0
 20 21  1  0
 14  5  1  0
 13  9  1  0
  1 22  1  0
  1 23  1  0
  1 24  1  0
  2 25  1  0
  2 26  1  0
  3 27  1  0
 10 28  1  0
 11 29  1  0
 12 30  1  0
 13 31  1  0
 16 32  1  0
 16 33  1  0
 16 34  1  0
 17 35  1  0
 18 36  1  0
 18 37  1  0
 19 38  1  0
 19 39  1  0
 20 40  1  0
 21 41  1  0
 21 42  1  0
M  END
>  <Energy>  (825) 
95.918078396476545

>  <compound_id>  (825) 
2129

>  <target_id>  (825) 
1

>  <reference_id>  (825) 
39

>  <inspiration_ids>  (825) 
[39, 94]

>  <energy_score>  (825) 
-10.046764390496008

>  <distance_score>  (825) 
1.0933231318133656

>  <path>  (825) 
/opt/xchem-fragalysis-2/maxwin/BulkDock/SCRATCH/505732/C2129-P39/C2129-P39.minimised.mol

>  <scratch_subdir>  (825) 
/opt/xchem-fragalysis-2/maxwin/BulkDock/SCRATCH/505732/C2129-P39

>  <fragmenstein_runtime>  (825) 
3.2006497383117676

>  <fragmenstein_outcome>  (825) 
too moved

>  <fragmenstein_mode>  (825) 
expansion

>  <fragmenstein_error>  (825) 


$$$$
C2129-P94
     RDKit          3D

 42 43  0  0  0  0  0  0  0  0999 V2000
   -9.1982  -24.9485   32.3710 C   0  0  0  0  0  0  0  0  0  0  0  0
  -10.6012  -25.3706   32.7369 C   0  0  0  0  0  0  0  0  0  0  0  0
  -11.6669  -24.2953   32.3747 C   0  0  0  0  0  0  0  0  0  0  0  0
  -11.7768  -23.2890   33.8115 S   0  0  0  0  0  0  0  0  0  0  0  0
  -12.9901  -22.0985   33.8072 C   0  0  0  0  0  0  0  0  0  0  0  0
  -14.2908  -22.3172   33.8609 N   0  0  0  0  0  0  0  0  0  0  0  0
  -14.8902  -21.0995   34.1411 N   0  0  0  0  0  0  0  0  0  0  0  0
  -13.9124  -20.2316   34.3291 C   0  0  0  0  0  0  0  0  0  0  0  0
  -14.1034  -18.9031   34.8119 C   0  0  0  0  0  0  0  0  0  0  0  0
  -15.2074  -18.3488   35.4320 C   0  0  0  0  0  0  0  0  0  0  0  0
  -14.9197  -16.9881   35.6885 C   0  0  0  0  0  0  0  0  0  0  0  0
  -13.6600  -16.7433   35.1954 C   0  0  0  0  0  0  0  0  0  0  0  0
  -13.1413  -17.9235   34.7220 N   0  0  0  0  0  0  0  0  0  0  0  0
  -12.6887  -20.7777   34.0513 O   0  0  0  0  0  0  0  0  0  0  0  0
  -11.4047  -23.6709   31.0731 N   0  0  0  0  0  0  0  0  0  0  0  0
  -11.4008  -24.6529   29.9844 C   0  0  0  0  0  0  0  0  0  0  0  0
  -12.0533  -22.3762   30.7402 C   0  0  0  0  0  0  0  0  0  0  0  0
  -11.9520  -21.9566   29.2519 C   0  0  0  0  0  0  0  0  0  0  0  0
  -10.7177  -22.1206   28.5020 N   0  0  0  0  0  0  0  0  0  0  0  0
  -13.4681  -22.5075   30.9649 N   0  0  0  0  0  0  0  0  0  0  0  0
  -14.4920  -21.5258   31.2146 N   0  0  0  0  0  0  0  0  0  0  0  0
   -8.9800  -23.9479   32.7445 H   0  0  0  0  0  0  0  0  0  0  0  0
   -9.0399  -24.9895   31.2928 H   0  0  0  0  0  0  0  0  0  0  0  0
   -8.4517  -25.6031   32.8146 H   0  0  0  0  0  0  0  0  0  0  0  0
  -10.8247  -26.3100   32.2166 H   0  0  0  0  0  0  0  0  0  0  0  0
  -10.6292  -25.6378   33.8020 H   0  0  0  0  0  0  0  0  0  0  0  0
  -12.5836  -24.8445   32.3696 H   0  0  0  0  0  0  0  0  0  0  0  0
  -16.1285  -18.8696   35.6647 H   0  0  0  0  0  0  0  0  0  0  0  0
  -15.5802  -16.2567   36.1386 H   0  0  0  0  0  0  0  0  0  0  0  0
  -13.0798  -15.8345   35.1211 H   0  0  0  0  0  0  0  0  0  0  0  0
  -12.2366  -18.0085   34.2601 H   0  0  0  0  0  0  0  0  0  0  0  0
  -12.3013  -24.6112   29.3744 H   0  0  0  0  0  0  0  0  0  0  0  0
  -10.5417  -24.5075   29.3244 H   0  0  0  0  0  0  0  0  0  0  0  0
  -11.3162  -25.6914   30.3134 H   0  0  0  0  0  0  0  0  0  0  0  0
  -11.5983  -21.5977   31.3607 H   0  0  0  0  0  0  0  0  0  0  0  0
  -12.2508  -20.9132   29.1850 H   0  0  0  0  0  0  0  0  0  0  0  0
  -12.6768  -22.4980   28.6570 H   0  0  0  0  0  0  0  0  0  0  0  0
  -10.9231  -22.7359   27.7136 H   0  0  0  0  0  0  0  0  0  0  0  0
  -10.5467  -21.2123   28.0568 H   0  0  0  0  0  0  0  0  0  0  0  0
  -13.6228  -23.2984   31.6037 H   0  0  0  0  0  0  0  0  0  0  0  0
  -15.3832  -21.9539   30.9223 H   0  0  0  0  0  0  0  0  0  0  0  0
  -14.6841  -21.4930   32.2303 H   0  0  0  0  0  0  0  0  0  0  0  0
  1  2  1  0
  2  3  1  0
  3  4  1  0
  4  5  1  0
  5  6  2  0
  6  7  1  0
  7  8  2  0
  8  9  1  0
  9 10  2  0
 10 11  1  0
 11 12  2  0
 12 13  1  0
  8 14  1  0
  3 15  1  0
 15 16  1  0
 15 17  1  0
 17 18  1  0
 18 19  1  0
 17 20  1  0
 20 21  1  0
 14  5  1  0
 13  9  1  0
  1 22  1  0
  1 23  1  0
  1 24  1  0
  2 25  1  0
  2 26  1  0
  3 27  1  0
 10 28  1  0
 11 29  1  0
 12 30  1  0
 13 31  1  0
 16 32  1  0
 16 33  1  0
 16 34  1  0
 17 35  1  0
 18 36  1  0
 18 37  1  0
 19 38  1  0
 19 39  1  0
 20 40  1  0
 21 41  1  0
 21 42  1  0
M  END
>  <Energy>  (826) 
111.27228658785049

>  <compound_id>  (826) 
2129

>  <target_id>  (826) 
1

>  <reference_id>  (826) 
94

>  <inspiration_ids>  (826) 
[39, 94]

>  <energy_score>  (826) 
5.3074438008789

>  <distance_score>  (826) 
0.9405336037630152

>  <path>  (826) 
/opt/xchem-fragalysis-2/maxwin/BulkDock/SCRATCH/505732/C2129-P94/C2129-P94.minimised.mol

>  <scratch_subdir>  (826) 
/opt/xchem-fragalysis-2/maxwin/BulkDock/SCRATCH/505732/C2129-P94

>  <fragmenstein_runtime>  (826) 
4.248981952667236

>  <fragmenstein_outcome>  (826) 
too contorted

>  <fragmenstein_mode>  (826) 
expansion

>  <fragmenstein_error>  (826) 


$$$$
C2130-P39
     RDKit          3D

 47 51  0  0  0  0  0  0  0  0999 V2000
  -12.7392  -23.6317   33.7893 N   0  0  0  0  0  0  0  0  0  0  0  0
  -12.2691  -22.7598   32.6229 N   0  0  0  0  0  0  0  0  0  0  0  0
  -12.8657  -21.4774   32.8725 C   0  0  0  0  0  0  0  0  0  0  0  0
  -14.2475  -21.6505   32.4994 N   0  0  0  0  0  0  0  0  0  0  0  0
  -14.2616  -22.6502   31.4530 N   0  0  0  0  0  0  0  0  0  0  0  0
  -12.8730  -23.2248   31.3122 C   0  0  0  0  0  0  0  0  0  0  0  0
  -12.7152  -24.8059   31.3561 C   0  0  0  0  0  0  0  0  0  0  0  0
  -12.7266  -25.6051   30.0765 C   0  0  0  0  0  0  0  0  0  0  0  0
  -12.2131  -26.9052   29.7661 C   0  0  0  0  0  0  0  0  0  0  0  0
  -12.3603  -27.0781   28.4042 C   0  0  0  0  0  0  0  0  0  0  0  0
  -12.9301  -25.9470   27.8586 N   0  0  0  0  0  0  0  0  0  0  0  0
  -13.1066  -25.0377   28.8725 C   0  0  0  0  0  0  0  0  0  0  0  0
  -13.3550  -23.5856   28.7534 C   0  0  0  0  0  0  0  0  0  0  0  0
  -12.5539  -22.6617   29.7534 C   0  0  0  0  0  0  0  0  0  0  0  0
  -11.2176  -22.3434   29.0903 N   0  0  0  0  0  0  0  0  0  0  0  0
  -10.5148  -23.3435   28.4885 C   0  0  0  0  0  0  0  0  0  0  0  0
   -9.3945  -23.5614   27.8714 N   0  0  0  0  0  0  0  0  0  0  0  0
   -8.9332  -24.8296   28.4052 N   0  0  0  0  0  0  0  0  0  0  0  0
   -9.6770  -25.1785   29.3930 C   0  0  0  0  0  0  0  0  0  0  0  0
   -9.4993  -25.2670   30.8126 C   0  0  0  0  0  0  0  0  0  0  0  0
   -9.9325  -24.2154   31.6048 C   0  0  0  0  0  0  0  0  0  0  0  0
   -9.8089  -24.1488   32.9408 C   0  0  0  0  0  0  0  0  0  0  0  0
   -9.1237  -25.1128   33.5338 C   0  0  0  0  0  0  0  0  0  0  0  0
   -8.4175  -25.8889   32.6715 C   0  0  0  0  0  0  0  0  0  0  0  0
   -8.9966  -26.2787   31.4987 C   0  0  0  0  0  0  0  0  0  0  0  0
  -10.7602  -24.5271   29.0234 N   0  0  0  0  0  0  0  0  0  0  0  0
  -12.1991  -24.4942   33.8772 H   0  0  0  0  0  0  0  0  0  0  0  0
  -12.6167  -23.1817   34.7029 H   0  0  0  0  0  0  0  0  0  0  0  0
  -12.7628  -21.1195   33.9035 H   0  0  0  0  0  0  0  0  0  0  0  0
  -12.2770  -20.8111   32.2548 H   0  0  0  0  0  0  0  0  0  0  0  0
  -14.7500  -20.8003   32.2809 H   0  0  0  0  0  0  0  0  0  0  0  0
  -14.8824  -23.4382   31.7233 H   0  0  0  0  0  0  0  0  0  0  0  0
  -11.8293  -25.1579   31.8559 H   0  0  0  0  0  0  0  0  0  0  0  0
  -13.3718  -25.1367   32.1192 H   0  0  0  0  0  0  0  0  0  0  0  0
  -11.7552  -27.5924   30.4654 H   0  0  0  0  0  0  0  0  0  0  0  0
  -12.0433  -27.8834   27.7642 H   0  0  0  0  0  0  0  0  0  0  0  0
  -13.0293  -25.7717   26.8640 H   0  0  0  0  0  0  0  0  0  0  0  0
  -14.3941  -23.5220   29.0221 H   0  0  0  0  0  0  0  0  0  0  0  0
  -13.1208  -23.2770   27.7323 H   0  0  0  0  0  0  0  0  0  0  0  0
  -12.9465  -21.6534   29.7676 H   0  0  0  0  0  0  0  0  0  0  0  0
  -11.1738  -21.4421   28.6082 H   0  0  0  0  0  0  0  0  0  0  0  0
  -10.4699  -23.3628   31.2341 H   0  0  0  0  0  0  0  0  0  0  0  0
  -10.2252  -23.2860   33.3955 H   0  0  0  0  0  0  0  0  0  0  0  0
   -8.9062  -25.0956   34.5875 H   0  0  0  0  0  0  0  0  0  0  0  0
   -7.5612  -26.4159   33.0471 H   0  0  0  0  0  0  0  0  0  0  0  0
   -8.8753  -27.2817   31.1224 H   0  0  0  0  0  0  0  0  0  0  0  0
  -11.3370  -24.3908   29.7781 H   0  0  0  0  0  0  0  0  0  0  0  0
  1  2  1  0
  2  3  1  0
  3  4  1  0
  4  5  1  0
  5  6  1  0
  6  7  1  0
  7  8  1  0
  8  9  1  0
  9 10  2  0
 10 11  1  0
 11 12  1  0
 12 13  1  0
 13 14  1  0
 14 15  1  0
 15 16  1  0
 16 17  2  0
 17 18  1  0
 18 19  2  0
 19 20  1  0
 20 21  2  0
 21 22  1  0
 22 23  2  0
 23 24  1  0
 24 25  2  0
 19 26  1  0
  6  2  1  0
 12  8  2  0
 26 16  1  0
 14  6  1  0
 25 20  1  0
  1 27  1  0
  1 28  1  0
  3 29  1  0
  3 30  1  0
  4 31  1  0
  5 32  1  0
  7 33  1  0
  7 34  1  0
  9 35  1  0
 10 36  1  0
 11 37  1  0
 13 38  1  0
 13 39  1  0
 14 40  1  0
 15 41  1  0
 21 42  1  0
 22 43  1  0
 23 44  1  0
 24 45  1  0
 25 46  1  0
 26 47  1  0
M  END
>  <Energy>  (827) 
404.2622401196794

>  <compound_id>  (827) 
2130

>  <target_id>  (827) 
1

>  <reference_id>  (827) 
39

>  <inspiration_ids>  (827) 
[39, 96]

>  <energy_score>  (827) 
180.2988373696254

>  <distance_score>  (827) 
2.1715698649889013

>  <path>  (827) 
/opt/xchem-fragalysis-2/maxwin/BulkDock/SCRATCH/505732/C2130-P39/C2130-P39.minimised.mol

>  <scratch_subdir>  (827) 
/opt/xchem-fragalysis-2/maxwin/BulkDock/SCRATCH/505732/C2130-P39

>  <fragmenstein_runtime>  (827) 
7.0425050258636475

>  <fragmenstein_outcome>  (827) 
too moved

>  <fragmenstein_mode>  (827) 
expansion

>  <fragmenstein_error>  (827) 


$$$$
C2130-P96
     RDKit          3D

 47 51  0  0  0  0  0  0  0  0999 V2000
  -11.2480  -22.5088   33.7005 N   0  0  0  0  0  0  0  0  0  0  0  0
  -12.5550  -22.1526   33.2703 N   0  0  0  0  0  0  0  0  0  0  0  0
  -12.7588  -20.7293   33.4684 C   0  0  0  0  0  0  0  0  0  0  0  0
  -14.0330  -20.5095   32.8018 N   0  0  0  0  0  0  0  0  0  0  0  0
  -13.9432  -21.3629   31.6187 N   0  0  0  0  0  0  0  0  0  0  0  0
  -12.9009  -22.4027   31.8397 C   0  0  0  0  0  0  0  0  0  0  0  0
  -13.4848  -23.8691   31.7760 C   0  0  0  0  0  0  0  0  0  0  0  0
  -13.4136  -24.5398   30.4381 C   0  0  0  0  0  0  0  0  0  0  0  0
  -13.7332  -25.8691   30.0584 C   0  0  0  0  0  0  0  0  0  0  0  0
  -13.3884  -26.0145   28.7288 C   0  0  0  0  0  0  0  0  0  0  0  0
  -12.8773  -24.8217   28.2813 N   0  0  0  0  0  0  0  0  0  0  0  0
  -12.8791  -23.9373   29.3228 C   0  0  0  0  0  0  0  0  0  0  0  0
  -12.2691  -22.5813   29.2828 C   0  0  0  0  0  0  0  0  0  0  0  0
  -11.8029  -22.1697   30.6943 C   0  0  0  0  0  0  0  0  0  0  0  0
  -10.5757  -22.8958   30.9835 N   0  0  0  0  0  0  0  0  0  0  0  0
  -10.1311  -23.7865   30.0667 C   0  0  0  0  0  0  0  0  0  0  0  0
   -9.1543  -23.7072   29.1926 N   0  0  0  0  0  0  0  0  0  0  0  0
   -8.4098  -24.8491   29.4149 N   0  0  0  0  0  0  0  0  0  0  0  0
   -8.9072  -25.3531   30.5408 C   0  0  0  0  0  0  0  0  0  0  0  0
   -8.4198  -25.0973   31.8972 C   0  0  0  0  0  0  0  0  0  0  0  0
   -8.0024  -23.7898   32.1276 C   0  0  0  0  0  0  0  0  0  0  0  0
   -8.2105  -23.1904   33.3369 C   0  0  0  0  0  0  0  0  0  0  0  0
   -8.5618  -23.9682   34.4041 C   0  0  0  0  0  0  0  0  0  0  0  0
   -8.6956  -25.3335   34.2141 C   0  0  0  0  0  0  0  0  0  0  0  0
   -8.7420  -25.8892   32.9612 C   0  0  0  0  0  0  0  0  0  0  0  0
  -10.2618  -25.1263   30.3886 N   0  0  0  0  0  0  0  0  0  0  0  0
  -11.2424  -22.6872   34.7159 H   0  0  0  0  0  0  0  0  0  0  0  0
  -10.8865  -23.3423   33.2320 H   0  0  0  0  0  0  0  0  0  0  0  0
  -11.9737  -20.1148   33.0072 H   0  0  0  0  0  0  0  0  0  0  0  0
  -12.8240  -20.4593   34.5269 H   0  0  0  0  0  0  0  0  0  0  0  0
  -14.7380  -20.8833   33.4421 H   0  0  0  0  0  0  0  0  0  0  0  0
  -14.8472  -21.7836   31.3675 H   0  0  0  0  0  0  0  0  0  0  0  0
  -12.9042  -24.5107   32.4462 H   0  0  0  0  0  0  0  0  0  0  0  0
  -14.5170  -23.8918   32.1485 H   0  0  0  0  0  0  0  0  0  0  0  0
  -14.1509  -26.6467   30.6853 H   0  0  0  0  0  0  0  0  0  0  0  0
  -13.4581  -26.8626   28.0610 H   0  0  0  0  0  0  0  0  0  0  0  0
  -12.5049  -24.6403   27.3557 H   0  0  0  0  0  0  0  0  0  0  0  0
  -12.9742  -21.8655   28.9683 H   0  0  0  0  0  0  0  0  0  0  0  0
  -11.4781  -22.5098   28.5258 H   0  0  0  0  0  0  0  0  0  0  0  0
  -11.5478  -21.1003   30.6652 H   0  0  0  0  0  0  0  0  0  0  0  0
   -9.8800  -22.1939   31.2243 H   0  0  0  0  0  0  0  0  0  0  0  0
   -7.7526  -23.1777   31.2772 H   0  0  0  0  0  0  0  0  0  0  0  0
   -8.1520  -22.1149   33.3848 H   0  0  0  0  0  0  0  0  0  0  0  0
   -8.7369  -23.5030   35.3640 H   0  0  0  0  0  0  0  0  0  0  0  0
   -8.8755  -26.0014   35.0255 H   0  0  0  0  0  0  0  0  0  0  0  0
   -9.1177  -26.8928   32.8543 H   0  0  0  0  0  0  0  0  0  0  0  0
  -10.9170  -25.3769   31.1015 H   0  0  0  0  0  0  0  0  0  0  0  0
  1  2  1  0
  2  3  1  0
  3  4  1  0
  4  5  1  0
  5  6  1  0
  6  7  1  0
  7  8  1  0
  8  9  1  0
  9 10  2  0
 10 11  1  0
 11 12  1  0
 12 13  1  0
 13 14  1  0
 14 15  1  0
 15 16  1  0
 16 17  2  0
 17 18  1  0
 18 19  2  0
 19 20  1  0
 20 21  2  0
 21 22  1  0
 22 23  2  0
 23 24  1  0
 24 25  2  0
 19 26  1  0
  6  2  1  0
 12  8  2  0
 26 16  1  0
 14  6  1  0
 25 20  1  0
  1 27  1  0
  1 28  1  0
  3 29  1  0
  3 30  1  0
  4 31  1  0
  5 32  1  0
  7 33  1  0
  7 34  1  0
  9 35  1  0
 10 36  1  0
 11 37  1  0
 13 38  1  0
 13 39  1  0
 14 40  1  0
 15 41  1  0
 21 42  1  0
 22 43  1  0
 23 44  1  0
 24 45  1  0
 25 46  1  0
 26 47  1  0
M  END
>  <Energy>  (828) 
256.42064850697125

>  <compound_id>  (828) 
2130

>  <target_id>  (828) 
1

>  <reference_id>  (828) 
96

>  <inspiration_ids>  (828) 
[39, 96]

>  <energy_score>  (828) 
32.4572457569127

>  <distance_score>  (828) 
2.3967819102992527

>  <path>  (828) 
/opt/xchem-fragalysis-2/maxwin/BulkDock/SCRATCH/505732/C2130-P96/C2130-P96.minimised.mol

>  <scratch_subdir>  (828) 
/opt/xchem-fragalysis-2/maxwin/BulkDock/SCRATCH/505732/C2130-P96

>  <fragmenstein_runtime>  (828) 
7.74140191078186

>  <fragmenstein_outcome>  (828) 
too moved

>  <fragmenstein_mode>  (828) 
expansion

>  <fragmenstein_error>  (828) 


$$$$
C2131-P39
     RDKit          3D

 54 55  0  0  0  0  0  0  0  0999 V2000
  -12.3873  -21.6959   32.8215 C   0  0  0  0  0  0  0  0  0  0  0  0
  -12.2720  -23.2067   32.8965 C   0  0  0  0  0  0  0  0  0  0  0  0
  -11.3729  -23.9627   31.8212 C   0  0  0  0  0  0  0  0  0  0  0  0
  -11.2879  -25.3231   32.3773 N   0  0  0  0  0  0  0  0  0  0  0  0
  -10.9526  -26.4936   31.5868 C   0  0  0  0  0  0  0  0  0  0  0  0
  -10.6106  -25.4213   33.6433 C   0  0  0  0  0  0  0  0  0  0  0  0
   -9.1716  -25.3993   33.5274 N   0  0  0  0  0  0  0  0  0  0  0  0
   -8.6754  -24.7812   32.3483 N   0  0  0  0  0  0  0  0  0  0  0  0
  -11.7695  -23.7445   30.2802 C   0  0  0  0  0  0  0  0  0  0  0  0
  -13.2406  -23.9672   30.0885 C   0  0  0  0  0  0  0  0  0  0  0  0
  -14.0709  -22.9059   30.6751 N   0  0  0  0  0  0  0  0  0  0  0  0
  -11.4660  -22.3004   29.7990 C   0  0  0  0  0  0  0  0  0  0  0  0
  -10.9319  -22.2187   28.3917 C   0  0  0  0  0  0  0  0  0  0  0  0
  -11.7360  -23.0176   27.4247 C   0  0  0  0  0  0  0  0  0  0  0  0
  -11.4206  -24.5032   27.3975 C   0  0  0  0  0  0  0  0  0  0  0  0
  -12.6334  -25.2107   26.7767 C   0  0  0  0  0  0  0  0  0  0  0  0
  -13.1962  -24.5680   25.6675 C   0  0  0  0  0  0  0  0  0  0  0  0
  -14.4440  -24.9110   25.1653 C   0  0  0  0  0  0  0  0  0  0  0  0
  -15.1446  -25.9888   25.6688 C   0  0  0  0  0  0  0  0  0  0  0  0
  -14.5601  -26.7281   26.6772 C   0  0  0  0  0  0  0  0  0  0  0  0
  -13.3102  -26.3553   27.2032 C   0  0  0  0  0  0  0  0  0  0  0  0
  -10.9078  -25.0080   29.0233 S   0  0  0  0  0  0  0  0  0  0  0  0
   -9.4684  -24.8171   29.0668 O   0  0  0  0  0  0  0  0  0  0  0  0
  -11.3820  -26.3701   29.1238 O   0  0  0  0  0  0  0  0  0  0  0  0
  -12.6030  -21.2890   33.8169 H   0  0  0  0  0  0  0  0  0  0  0  0
  -11.4688  -21.2247   32.4708 H   0  0  0  0  0  0  0  0  0  0  0  0
  -13.2176  -21.3840   32.2018 H   0  0  0  0  0  0  0  0  0  0  0  0
  -13.2528  -23.6803   33.0034 H   0  0  0  0  0  0  0  0  0  0  0  0
  -11.8426  -23.3108   33.8878 H   0  0  0  0  0  0  0  0  0  0  0  0
  -10.4144  -23.4624   31.9087 H   0  0  0  0  0  0  0  0  0  0  0  0
  -10.0452  -26.4039   30.9928 H   0  0  0  0  0  0  0  0  0  0  0  0
  -11.8520  -26.8114   31.0616 H   0  0  0  0  0  0  0  0  0  0  0  0
  -10.7546  -27.3860   32.1800 H   0  0  0  0  0  0  0  0  0  0  0  0
  -10.9980  -24.7894   34.4265 H   0  0  0  0  0  0  0  0  0  0  0  0
  -10.8398  -26.3772   34.1160 H   0  0  0  0  0  0  0  0  0  0  0  0
   -8.9706  -26.3906   33.3659 H   0  0  0  0  0  0  0  0  0  0  0  0
   -8.3372  -23.8488   32.5606 H   0  0  0  0  0  0  0  0  0  0  0  0
   -7.8853  -25.3212   31.9806 H   0  0  0  0  0  0  0  0  0  0  0  0
  -13.3648  -24.9082   30.5847 H   0  0  0  0  0  0  0  0  0  0  0  0
  -13.5624  -24.1139   29.0625 H   0  0  0  0  0  0  0  0  0  0  0  0
  -14.4657  -23.3331   31.5346 H   0  0  0  0  0  0  0  0  0  0  0  0
  -14.9731  -22.8262   30.2034 H   0  0  0  0  0  0  0  0  0  0  0  0
  -10.8185  -21.7526   30.4840 H   0  0  0  0  0  0  0  0  0  0  0  0
  -12.3557  -21.6689   29.8085 H   0  0  0  0  0  0  0  0  0  0  0  0
   -9.8835  -22.4902   28.2931 H   0  0  0  0  0  0  0  0  0  0  0  0
  -10.9987  -21.1960   28.0825 H   0  0  0  0  0  0  0  0  0  0  0  0
  -12.7828  -22.8519   27.6618 H   0  0  0  0  0  0  0  0  0  0  0  0
  -11.5998  -22.5946   26.4308 H   0  0  0  0  0  0  0  0  0  0  0  0
  -10.5618  -24.6943   26.7448 H   0  0  0  0  0  0  0  0  0  0  0  0
  -12.7221  -23.7064   25.2006 H   0  0  0  0  0  0  0  0  0  0  0  0
  -14.8659  -24.2909   24.3904 H   0  0  0  0  0  0  0  0  0  0  0  0
  -16.1153  -26.2600   25.2672 H   0  0  0  0  0  0  0  0  0  0  0  0
  -15.0601  -27.6159   27.0556 H   0  0  0  0  0  0  0  0  0  0  0  0
  -12.9321  -27.0255   27.9628 H   0  0  0  0  0  0  0  0  0  0  0  0
  1  2  1  0
  2  3  1  0
  3  4  1  0
  4  5  1  0
  4  6  1  0
  6  7  1  0
  7  8  1  0
  3  9  1  0
  9 10  1  0
 10 11  1  0
  9 12  1  0
 12 13  1  0
 13 14  1  0
 14 15  1  0
 15 16  1  0
 16 17  2  0
 17 18  1  0
 18 19  2  0
 19 20  1  0
 20 21  2  0
 15 22  1  0
 22 23  2  0
 22 24  2  0
 22  9  1  0
 21 16  1  0
  1 25  1  0
  1 26  1  0
  1 27  1  0
  2 28  1  0
  2 29  1  0
  3 30  1  0
  5 31  1  0
  5 32  1  0
  5 33  1  0
  6 34  1  0
  6 35  1  0
  7 36  1  0
  8 37  1  0
  8 38  1  0
 10 39  1  0
 10 40  1  0
 11 41  1  0
 11 42  1  0
 12 43  1  0
 12 44  1  0
 13 45  1  0
 13 46  1  0
 14 47  1  0
 14 48  1  0
 15 49  1  0
 17 50  1  0
 18 51  1  0
 19 52  1  0
 20 53  1  0
 21 54  1  0
M  END
>  <Energy>  (829) 
205.5712153362293

>  <compound_id>  (829) 
2131

>  <target_id>  (829) 
1

>  <reference_id>  (829) 
39

>  <inspiration_ids>  (829) 
[39, 101]

>  <energy_score>  (829) 
-3.025272888579366

>  <distance_score>  (829) 
1.8128500078410825

>  <path>  (829) 
/opt/xchem-fragalysis-2/maxwin/BulkDock/SCRATCH/505732/C2131-P39/C2131-P39.minimised.mol

>  <scratch_subdir>  (829) 
/opt/xchem-fragalysis-2/maxwin/BulkDock/SCRATCH/505732/C2131-P39

>  <fragmenstein_runtime>  (829) 
6.19976806640625

>  <fragmenstein_outcome>  (829) 
too moved

>  <fragmenstein_mode>  (829) 
expansion

>  <fragmenstein_error>  (829) 


$$$$
C2131-P101
     RDKit          3D

 54 55  0  0  0  0  0  0  0  0999 V2000
  -14.7687  -23.1796   33.9615 C   0  0  0  0  0  0  0  0  0  0  0  0
  -13.7373  -24.2428   33.5947 C   0  0  0  0  0  0  0  0  0  0  0  0
  -12.2584  -23.8612   33.0182 C   0  0  0  0  0  0  0  0  0  0  0  0
  -11.3020  -24.9601   33.3080 N   0  0  0  0  0  0  0  0  0  0  0  0
  -11.4465  -25.6421   34.5568 C   0  0  0  0  0  0  0  0  0  0  0  0
   -9.8737  -24.8044   33.1970 C   0  0  0  0  0  0  0  0  0  0  0  0
   -9.6545  -23.4604   32.8229 N   0  0  0  0  0  0  0  0  0  0  0  0
   -8.4107  -22.9656   33.2032 N   0  0  0  0  0  0  0  0  0  0  0  0
  -12.2305  -23.3193   31.4680 C   0  0  0  0  0  0  0  0  0  0  0  0
  -13.6572  -22.9553   31.0364 C   0  0  0  0  0  0  0  0  0  0  0  0
  -14.2998  -21.6874   31.4462 N   0  0  0  0  0  0  0  0  0  0  0  0
  -11.5316  -21.9772   31.1996 C   0  0  0  0  0  0  0  0  0  0  0  0
  -11.5087  -21.5567   29.7248 C   0  0  0  0  0  0  0  0  0  0  0  0
  -11.7297  -22.5072   28.5526 C   0  0  0  0  0  0  0  0  0  0  0  0
  -11.0988  -23.8691   28.4996 C   0  0  0  0  0  0  0  0  0  0  0  0
  -11.6974  -24.8231   27.4404 C   0  0  0  0  0  0  0  0  0  0  0  0
  -12.6315  -24.4016   26.4881 C   0  0  0  0  0  0  0  0  0  0  0  0
  -13.3503  -25.2882   25.6876 C   0  0  0  0  0  0  0  0  0  0  0  0
  -13.1037  -26.6410   25.7834 C   0  0  0  0  0  0  0  0  0  0  0  0
  -12.0753  -27.0721   26.6082 C   0  0  0  0  0  0  0  0  0  0  0  0
  -11.3250  -26.1666   27.3568 C   0  0  0  0  0  0  0  0  0  0  0  0
  -11.0914  -24.5704   30.1510 S   0  0  0  0  0  0  0  0  0  0  0  0
   -9.6876  -24.4846   30.5066 O   0  0  0  0  0  0  0  0  0  0  0  0
  -11.3648  -25.9564   29.9674 O   0  0  0  0  0  0  0  0  0  0  0  0
  -15.5179  -23.0254   33.1834 H   0  0  0  0  0  0  0  0  0  0  0  0
  -15.3711  -23.5313   34.8023 H   0  0  0  0  0  0  0  0  0  0  0  0
  -14.3119  -22.2329   34.2393 H   0  0  0  0  0  0  0  0  0  0  0  0
  -14.2521  -25.0139   33.0341 H   0  0  0  0  0  0  0  0  0  0  0  0
  -13.6544  -24.7724   34.5160 H   0  0  0  0  0  0  0  0  0  0  0  0
  -11.9844  -23.0008   33.6445 H   0  0  0  0  0  0  0  0  0  0  0  0
  -10.7975  -26.5135   34.5595 H   0  0  0  0  0  0  0  0  0  0  0  0
  -11.1245  -24.9766   35.3409 H   0  0  0  0  0  0  0  0  0  0  0  0
  -12.4106  -26.0842   34.7762 H   0  0  0  0  0  0  0  0  0  0  0  0
   -9.3188  -25.0477   34.1091 H   0  0  0  0  0  0  0  0  0  0  0  0
   -9.4867  -25.4927   32.4479 H   0  0  0  0  0  0  0  0  0  0  0  0
   -9.6571  -23.6236   31.8162 H   0  0  0  0  0  0  0  0  0  0  0  0
   -8.2257  -21.9604   33.1213 H   0  0  0  0  0  0  0  0  0  0  0  0
   -7.7019  -23.3960   32.6220 H   0  0  0  0  0  0  0  0  0  0  0  0
  -14.3676  -23.5551   31.5627 H   0  0  0  0  0  0  0  0  0  0  0  0
  -13.7853  -23.1360   29.9795 H   0  0  0  0  0  0  0  0  0  0  0  0
  -14.1011  -21.5188   32.4293 H   0  0  0  0  0  0  0  0  0  0  0  0
  -15.3121  -21.8488   31.3829 H   0  0  0  0  0  0  0  0  0  0  0  0
  -10.5391  -21.8925   31.5795 H   0  0  0  0  0  0  0  0  0  0  0  0
  -11.9820  -21.1952   31.8149 H   0  0  0  0  0  0  0  0  0  0  0  0
  -10.5737  -21.0393   29.5681 H   0  0  0  0  0  0  0  0  0  0  0  0
  -12.2625  -20.7896   29.5837 H   0  0  0  0  0  0  0  0  0  0  0  0
  -12.7949  -22.6560   28.4570 H   0  0  0  0  0  0  0  0  0  0  0  0
  -11.4330  -21.9747   27.6463 H   0  0  0  0  0  0  0  0  0  0  0  0
  -10.0487  -23.7643   28.2033 H   0  0  0  0  0  0  0  0  0  0  0  0
  -12.8380  -23.3567   26.3417 H   0  0  0  0  0  0  0  0  0  0  0  0
  -14.0995  -24.9112   24.9975 H   0  0  0  0  0  0  0  0  0  0  0  0
  -13.6782  -27.3510   25.1970 H   0  0  0  0  0  0  0  0  0  0  0  0
  -11.8749  -28.1301   26.7129 H   0  0  0  0  0  0  0  0  0  0  0  0
  -10.5136  -26.5590   27.9685 H   0  0  0  0  0  0  0  0  0  0  0  0
  1  2  1  0
  2  3  1  0
  3  4  1  0
  4  5  1  0
  4  6  1  0
  6  7  1  0
  7  8  1  0
  3  9  1  0
  9 10  1  0
 10 11  1  0
  9 12  1  0
 12 13  1  0
 13 14  1  0
 14 15  1  0
 15 16  1  0
 16 17  2  0
 17 18  1  0
 18 19  2  0
 19 20  1  0
 20 21  2  0
 15 22  1  0
 22 23  2  0
 22 24  2  0
 22  9  1  0
 21 16  1  0
  1 25  1  0
  1 26  1  0
  1 27  1  0
  2 28  1  0
  2 29  1  0
  3 30  1  0
  5 31  1  0
  5 32  1  0
  5 33  1  0
  6 34  1  0
  6 35  1  0
  7 36  1  0
  8 37  1  0
  8 38  1  0
 10 39  1  0
 10 40  1  0
 11 41  1  0
 11 42  1  0
 12 43  1  0
 12 44  1  0
 13 45  1  0
 13 46  1  0
 14 47  1  0
 14 48  1  0
 15 49  1  0
 17 50  1  0
 18 51  1  0
 19 52  1  0
 20 53  1  0
 21 54  1  0
M  END
>  <Energy>  (830) 
251.69910217775126

>  <compound_id>  (830) 
2131

>  <target_id>  (830) 
1

>  <reference_id>  (830) 
101

>  <inspiration_ids>  (830) 
[39, 101]

>  <energy_score>  (830) 
65.03659272541489

>  <distance_score>  (830) 
1.371957878538334

>  <path>  (830) 
/opt/xchem-fragalysis-2/maxwin/BulkDock/SCRATCH/505732/C2131-P101/C2131-P101.minimised.mol

>  <scratch_subdir>  (830) 
/opt/xchem-fragalysis-2/maxwin/BulkDock/SCRATCH/505732/C2131-P101

>  <fragmenstein_runtime>  (830) 
7.6597113609313965

>  <fragmenstein_outcome>  (830) 
too moved

>  <fragmenstein_mode>  (830) 
expansion

>  <fragmenstein_error>  (830) 


$$$$
C2131-P39
     RDKit          2D

  0  0  0  0  0  0  0  0  0  0999 V2000
M  END
>  <compound_id>  (831) 
2131

>  <target_id>  (831) 
1

>  <reference_id>  (831) 
39

>  <inspiration_ids>  (831) 
[39, 104]

>  <energy_score>  (831) 
nan

>  <distance_score>  (831) 
nan

>  <path>  (831) 
/opt/xchem-fragalysis-2/maxwin/BulkDock/SCRATCH/505732/C2131-P39/C2131-P39.minimised.mol

>  <scratch_subdir>  (831) 
/opt/xchem-fragalysis-2/maxwin/BulkDock/SCRATCH/505732/C2131-P39

>  <fragmenstein_runtime>  (831) 
1.755619764328003

>  <fragmenstein_outcome>  (831) 
too distant

>  <fragmenstein_mode>  (831) 
expansion

>  <fragmenstein_error>  (831) 
DistanceError: hit1

$$$$
C2135-P39
     RDKit          3D

 36 36  0  0  0  0  0  0  0  0999 V2000
  -11.9168  -27.6649   30.3881 C   0  0  0  0  0  0  0  0  0  0  0  0
  -11.9363  -27.1982   28.9279 C   0  0  0  0  0  0  0  0  0  0  0  0
  -11.0666  -25.9494   28.7298 C   0  0  0  0  0  0  0  0  0  0  0  0
  -11.3523  -25.1424   29.8489 N   0  0  0  0  0  0  0  0  0  0  0  0
  -12.5284  -24.1939   30.1158 C   0  0  0  0  0  0  0  0  0  0  0  0
  -13.3829  -23.8788   29.4420 O   0  0  0  0  0  0  0  0  0  0  0  0
  -12.1992  -23.7873   31.5435 N   0  0  0  0  0  0  0  0  0  0  0  0
  -12.7760  -22.8927   32.3395 C   0  0  0  0  0  0  0  0  0  0  0  0
  -13.8786  -22.0740   32.1471 C   0  0  0  0  0  0  0  0  0  0  0  0
  -13.9561  -21.1566   33.1138 N   0  0  0  0  0  0  0  0  0  0  0  0
  -12.9217  -21.4641   33.9136 N   0  0  0  0  0  0  0  0  0  0  0  0
  -12.2989  -22.6085   33.5686 C   0  0  0  0  0  0  0  0  0  0  0  0
  -11.4553  -25.1179   27.6281 N   0  0  0  0  0  0  0  0  0  0  0  0
  -10.8109  -23.8286   27.5453 C   0  0  0  0  0  0  0  0  0  0  0  0
  -11.6020  -25.7609   26.3553 C   0  0  0  0  0  0  0  0  0  0  0  0
  -12.8459  -25.2696   25.7541 N   0  0  0  0  0  0  0  0  0  0  0  0
  -13.9876  -25.6670   26.5841 N   0  0  0  0  0  0  0  0  0  0  0  0
  -10.9025  -27.7505   30.7879 H   0  0  0  0  0  0  0  0  0  0  0  0
  -12.4474  -28.6143   30.5024 H   0  0  0  0  0  0  0  0  0  0  0  0
  -12.4122  -26.9418   31.0311 H   0  0  0  0  0  0  0  0  0  0  0  0
  -11.6393  -27.9961   28.2504 H   0  0  0  0  0  0  0  0  0  0  0  0
  -12.9719  -26.9933   28.6579 H   0  0  0  0  0  0  0  0  0  0  0  0
  -10.0003  -26.1991   28.7299 H   0  0  0  0  0  0  0  0  0  0  0  0
  -10.8204  -25.2644   30.6897 H   0  0  0  0  0  0  0  0  0  0  0  0
  -11.3247  -24.1908   31.8140 H   0  0  0  0  0  0  0  0  0  0  0  0
  -14.5989  -22.0699   31.3379 H   0  0  0  0  0  0  0  0  0  0  0  0
  -12.7331  -20.8668   34.7110 H   0  0  0  0  0  0  0  0  0  0  0  0
  -11.5822  -23.0959   34.1859 H   0  0  0  0  0  0  0  0  0  0  0  0
   -9.7649  -23.9452   27.2548 H   0  0  0  0  0  0  0  0  0  0  0  0
  -10.8211  -23.2387   28.4648 H   0  0  0  0  0  0  0  0  0  0  0  0
  -11.3258  -23.1990   26.8144 H   0  0  0  0  0  0  0  0  0  0  0  0
  -10.7990  -25.5068   25.6661 H   0  0  0  0  0  0  0  0  0  0  0  0
  -11.6123  -26.8489   26.3996 H   0  0  0  0  0  0  0  0  0  0  0  0
  -12.7736  -24.2475   25.7298 H   0  0  0  0  0  0  0  0  0  0  0  0
  -13.8383  -25.2533   27.5200 H   0  0  0  0  0  0  0  0  0  0  0  0
  -14.8509  -25.2479   26.2344 H   0  0  0  0  0  0  0  0  0  0  0  0
  1  2  1  0
  2  3  1  0
  3  4  1  0
  4  5  1  0
  5  6  2  0
  5  7  1  0
  7  8  1  0
  8  9  1  0
  9 10  2  0
 10 11  1  0
 11 12  1  0
  3 13  1  0
 13 14  1  0
 13 15  1  0
 15 16  1  0
 16 17  1  0
 12  8  2  0
  1 18  1  0
  1 19  1  0
  1 20  1  0
  2 21  1  0
  2 22  1  0
  3 23  1  0
  4 24  1  0
  7 25  1  0
  9 26  1  0
 11 27  1  0
 12 28  1  0
 14 29  1  0
 14 30  1  0
 14 31  1  0
 15 32  1  0
 15 33  1  0
 16 34  1  0
 17 35  1  0
 17 36  1  0
M  END
>  <Energy>  (832) 
-25.168189687259495

>  <compound_id>  (832) 
2135

>  <target_id>  (832) 
1

>  <reference_id>  (832) 
39

>  <inspiration_ids>  (832) 
[39, 119]

>  <energy_score>  (832) 
-15.20835474686065

>  <distance_score>  (832) 
3.229637163313416

>  <path>  (832) 
/opt/xchem-fragalysis-2/maxwin/BulkDock/SCRATCH/505732/C2135-P39/C2135-P39.minimised.mol

>  <scratch_subdir>  (832) 
/opt/xchem-fragalysis-2/maxwin/BulkDock/SCRATCH/505732/C2135-P39

>  <fragmenstein_runtime>  (832) 
5.018554925918579

>  <fragmenstein_outcome>  (832) 
too moved

>  <fragmenstein_mode>  (832) 
expansion

>  <fragmenstein_error>  (832) 


$$$$
C2135-P119
     RDKit          3D

 36 36  0  0  0  0  0  0  0  0999 V2000
  -10.9079  -28.4476   28.7455 C   0  0  0  0  0  0  0  0  0  0  0  0
  -11.4055  -27.0404   28.9900 C   0  0  0  0  0  0  0  0  0  0  0  0
  -10.7024  -25.8149   28.3245 C   0  0  0  0  0  0  0  0  0  0  0  0
  -10.3564  -24.9484   29.4250 N   0  0  0  0  0  0  0  0  0  0  0  0
  -10.9720  -23.5900   29.8691 C   0  0  0  0  0  0  0  0  0  0  0  0
  -11.7758  -22.9524   29.3779 O   0  0  0  0  0  0  0  0  0  0  0  0
  -10.2487  -23.4148   31.2159 N   0  0  0  0  0  0  0  0  0  0  0  0
  -10.4414  -22.5185   32.1954 C   0  0  0  0  0  0  0  0  0  0  0  0
  -11.3365  -21.4384   32.1485 C   0  0  0  0  0  0  0  0  0  0  0  0
  -11.5536  -20.9473   33.3633 N   0  0  0  0  0  0  0  0  0  0  0  0
  -10.8713  -21.7914   34.1547 N   0  0  0  0  0  0  0  0  0  0  0  0
  -10.0148  -22.6193   33.4831 C   0  0  0  0  0  0  0  0  0  0  0  0
  -11.5794  -25.0065   27.5066 N   0  0  0  0  0  0  0  0  0  0  0  0
  -10.9199  -23.8508   26.8850 C   0  0  0  0  0  0  0  0  0  0  0  0
  -12.3400  -25.7105   26.5215 C   0  0  0  0  0  0  0  0  0  0  0  0
  -13.3983  -24.8192   26.0735 N   0  0  0  0  0  0  0  0  0  0  0  0
  -14.4032  -25.5646   25.3371 N   0  0  0  0  0  0  0  0  0  0  0  0
  -10.1496  -28.5146   27.9633 H   0  0  0  0  0  0  0  0  0  0  0  0
  -11.7482  -29.1226   28.5518 H   0  0  0  0  0  0  0  0  0  0  0  0
  -10.4839  -28.8422   29.6634 H   0  0  0  0  0  0  0  0  0  0  0  0
  -12.4702  -27.0623   28.7637 H   0  0  0  0  0  0  0  0  0  0  0  0
  -11.3215  -26.9278   30.0753 H   0  0  0  0  0  0  0  0  0  0  0  0
   -9.7968  -26.1017   27.7827 H   0  0  0  0  0  0  0  0  0  0  0  0
   -9.7251  -25.2796   30.1299 H   0  0  0  0  0  0  0  0  0  0  0  0
   -9.6529  -24.2022   31.3826 H   0  0  0  0  0  0  0  0  0  0  0  0
  -11.8881  -21.0432   31.3047 H   0  0  0  0  0  0  0  0  0  0  0  0
  -11.0351  -21.7285   35.1601 H   0  0  0  0  0  0  0  0  0  0  0  0
   -9.3581  -23.3031   33.9969 H   0  0  0  0  0  0  0  0  0  0  0  0
  -11.6313  -23.0337   26.7170 H   0  0  0  0  0  0  0  0  0  0  0  0
  -10.4852  -24.1094   25.9137 H   0  0  0  0  0  0  0  0  0  0  0  0
  -10.0973  -23.4259   27.4689 H   0  0  0  0  0  0  0  0  0  0  0  0
  -11.7087  -25.9772   25.6752 H   0  0  0  0  0  0  0  0  0  0  0  0
  -12.8132  -26.6136   26.9069 H   0  0  0  0  0  0  0  0  0  0  0  0
  -13.7557  -24.3654   26.9221 H   0  0  0  0  0  0  0  0  0  0  0  0
  -15.3430  -25.2836   25.6334 H   0  0  0  0  0  0  0  0  0  0  0  0
  -14.3687  -25.3083   24.3388 H   0  0  0  0  0  0  0  0  0  0  0  0
  1  2  1  0
  2  3  1  0
  3  4  1  0
  4  5  1  0
  5  6  2  0
  5  7  1  0
  7  8  1  0
  8  9  1  0
  9 10  2  0
 10 11  1  0
 11 12  1  0
  3 13  1  0
 13 14  1  0
 13 15  1  0
 15 16  1  0
 16 17  1  0
 12  8  2  0
  1 18  1  0
  1 19  1  0
  1 20  1  0
  2 21  1  0
  2 22  1  0
  3 23  1  0
  4 24  1  0
  7 25  1  0
  9 26  1  0
 11 27  1  0
 12 28  1  0
 14 29  1  0
 14 30  1  0
 14 31  1  0
 15 32  1  0
 15 33  1  0
 16 34  1  0
 17 35  1  0
 17 36  1  0
M  END
>  <Energy>  (833) 
-9.2238056986060766

>  <compound_id>  (833) 
2135

>  <target_id>  (833) 
1

>  <reference_id>  (833) 
119

>  <inspiration_ids>  (833) 
[39, 119]

>  <energy_score>  (833) 
0.7360292417928349

>  <distance_score>  (833) 
2.9820350027381415

>  <path>  (833) 
/opt/xchem-fragalysis-2/maxwin/BulkDock/SCRATCH/505732/C2135-P119/C2135-P119.minimised.mol

>  <scratch_subdir>  (833) 
/opt/xchem-fragalysis-2/maxwin/BulkDock/SCRATCH/505732/C2135-P119

>  <fragmenstein_runtime>  (833) 
4.4192421436309814

>  <fragmenstein_outcome>  (833) 
too moved

>  <fragmenstein_mode>  (833) 
expansion

>  <fragmenstein_error>  (833) 


$$$$
C2136-P39
     RDKit          3D

 41 41  0  0  0  0  0  0  0  0999 V2000
  -13.9718  -25.2647   26.5640 C   0  0  0  0  0  0  0  0  0  0  0  0
  -13.3591  -25.3409   27.9545 C   0  0  0  0  0  0  0  0  0  0  0  0
  -11.8837  -24.9874   28.3547 C   0  0  0  0  0  0  0  0  0  0  0  0
  -10.6760  -25.5403   27.6931 N   0  0  0  0  0  0  0  0  0  0  0  0
   -9.6686  -25.9575   28.6682 C   0  0  0  0  0  0  0  0  0  0  0  0
  -10.9689  -26.6587   26.8225 C   0  0  0  0  0  0  0  0  0  0  0  0
  -11.5847  -26.1996   25.5989 N   0  0  0  0  0  0  0  0  0  0  0  0
  -11.0019  -25.0082   25.0835 N   0  0  0  0  0  0  0  0  0  0  0  0
  -11.4901  -23.6693   29.0274 N   0  0  0  0  0  0  0  0  0  0  0  0
  -11.8847  -23.1392   27.7622 C   0  0  0  0  0  0  0  0  0  0  0  0
  -11.4647  -21.7767   27.9941 N   0  0  0  0  0  0  0  0  0  0  0  0
  -12.1151  -23.5677   30.3195 C   0  0  0  0  0  0  0  0  0  0  0  0
  -13.1456  -23.1001   30.6318 O   0  0  0  0  0  0  0  0  0  0  0  0
  -11.0981  -24.2067   31.1102 N   0  0  0  0  0  0  0  0  0  0  0  0
  -11.0718  -24.5294   32.4045 C   0  0  0  0  0  0  0  0  0  0  0  0
  -10.0811  -25.2565   33.0732 C   0  0  0  0  0  0  0  0  0  0  0  0
  -10.4637  -25.5578   34.3154 N   0  0  0  0  0  0  0  0  0  0  0  0
  -11.6681  -24.9588   34.3959 N   0  0  0  0  0  0  0  0  0  0  0  0
  -12.0578  -24.2779   33.3009 C   0  0  0  0  0  0  0  0  0  0  0  0
  -15.0615  -25.1863   26.6492 H   0  0  0  0  0  0  0  0  0  0  0  0
  -13.6069  -24.4334   25.9582 H   0  0  0  0  0  0  0  0  0  0  0  0
  -13.8566  -26.2017   26.0140 H   0  0  0  0  0  0  0  0  0  0  0  0
  -14.0040  -24.7536   28.6139 H   0  0  0  0  0  0  0  0  0  0  0  0
  -13.4629  -26.4042   28.2002 H   0  0  0  0  0  0  0  0  0  0  0  0
  -11.9130  -25.6318   29.2510 H   0  0  0  0  0  0  0  0  0  0  0  0
  -10.0684  -26.6046   29.4562 H   0  0  0  0  0  0  0  0  0  0  0  0
   -9.1910  -25.0893   29.1204 H   0  0  0  0  0  0  0  0  0  0  0  0
   -8.8572  -26.5018   28.1855 H   0  0  0  0  0  0  0  0  0  0  0  0
  -11.5820  -27.4104   27.3277 H   0  0  0  0  0  0  0  0  0  0  0  0
  -10.0495  -27.1422   26.4932 H   0  0  0  0  0  0  0  0  0  0  0  0
  -11.7280  -26.9825   24.9547 H   0  0  0  0  0  0  0  0  0  0  0  0
  -10.4609  -24.5365   25.8145 H   0  0  0  0  0  0  0  0  0  0  0  0
  -10.3160  -25.1865   24.3476 H   0  0  0  0  0  0  0  0  0  0  0  0
  -11.3501  -23.4154   26.8700 H   0  0  0  0  0  0  0  0  0  0  0  0
  -12.9537  -23.0583   27.6385 H   0  0  0  0  0  0  0  0  0  0  0  0
  -11.5545  -21.2897   27.1066 H   0  0  0  0  0  0  0  0  0  0  0  0
  -10.4808  -21.7815   28.2287 H   0  0  0  0  0  0  0  0  0  0  0  0
  -10.3123  -24.4138   30.5271 H   0  0  0  0  0  0  0  0  0  0  0  0
   -9.1330  -25.6183   32.6991 H   0  0  0  0  0  0  0  0  0  0  0  0
  -12.2073  -25.0691   35.2430 H   0  0  0  0  0  0  0  0  0  0  0  0
  -13.0114  -23.7717   33.2381 H   0  0  0  0  0  0  0  0  0  0  0  0
  1  2  1  0
  2  3  1  0
  3  4  1  0
  4  5  1  0
  4  6  1  0
  6  7  1  0
  7  8  1  0
  3  9  1  0
  9 10  1  0
 10 11  1  0
  9 12  1  0
 12 13  2  0
 12 14  1  0
 14 15  1  0
 15 16  1  0
 16 17  2  0
 17 18  1  0
 18 19  1  0
 19 15  2  0
  1 20  1  0
  1 21  1  0
  1 22  1  0
  2 23  1  0
  2 24  1  0
  3 25  1  0
  5 26  1  0
  5 27  1  0
  5 28  1  0
  6 29  1  0
  6 30  1  0
  7 31  1  0
  8 32  1  0
  8 33  1  0
 10 34  1  0
 10 35  1  0
 11 36  1  0
 11 37  1  0
 14 38  1  0
 16 39  1  0
 18 40  1  0
 19 41  1  0
M  END
>  <Energy>  (834) 
14.138751669074127

>  <compound_id>  (834) 
2136

>  <target_id>  (834) 
1

>  <reference_id>  (834) 
39

>  <inspiration_ids>  (834) 
[39, 123]

>  <energy_score>  (834) 
62.56489465760188

>  <distance_score>  (834) 
3.8455474236548404

>  <path>  (834) 
/opt/xchem-fragalysis-2/maxwin/BulkDock/SCRATCH/505732/C2136-P39/C2136-P39.minimised.mol

>  <scratch_subdir>  (834) 
/opt/xchem-fragalysis-2/maxwin/BulkDock/SCRATCH/505732/C2136-P39

>  <fragmenstein_runtime>  (834) 
8.748156785964966

>  <fragmenstein_outcome>  (834) 
too moved

>  <fragmenstein_mode>  (834) 
expansion

>  <fragmenstein_error>  (834) 


$$$$
C2136-P123
     RDKit          3D

 41 41  0  0  0  0  0  0  0  0999 V2000
  -12.9936  -26.1180   28.4602 C   0  0  0  0  0  0  0  0  0  0  0  0
  -12.2443  -26.0301   29.8060 C   0  0  0  0  0  0  0  0  0  0  0  0
  -12.0205  -24.5529   30.3296 C   0  0  0  0  0  0  0  0  0  0  0  0
  -11.2469  -23.6432   29.4513 N   0  0  0  0  0  0  0  0  0  0  0  0
  -11.9979  -22.4711   29.0217 C   0  0  0  0  0  0  0  0  0  0  0  0
  -10.5880  -24.2041   28.2894 C   0  0  0  0  0  0  0  0  0  0  0  0
   -9.8335  -25.3701   28.6992 N   0  0  0  0  0  0  0  0  0  0  0  0
   -9.8399  -26.3761   27.7027 N   0  0  0  0  0  0  0  0  0  0  0  0
  -11.7578  -24.2895   31.8992 N   0  0  0  0  0  0  0  0  0  0  0  0
  -10.5477  -25.0413   31.6122 C   0  0  0  0  0  0  0  0  0  0  0  0
   -9.9220  -25.0566   32.9451 N   0  0  0  0  0  0  0  0  0  0  0  0
  -11.9458  -22.8517   32.2140 C   0  0  0  0  0  0  0  0  0  0  0  0
  -11.1689  -21.9695   32.2153 O   0  0  0  0  0  0  0  0  0  0  0  0
  -13.3549  -22.8749   32.6209 N   0  0  0  0  0  0  0  0  0  0  0  0
  -14.1353  -21.9110   33.2001 C   0  0  0  0  0  0  0  0  0  0  0  0
  -13.7442  -20.7625   33.9146 C   0  0  0  0  0  0  0  0  0  0  0  0
  -14.7912  -20.0347   34.3321 N   0  0  0  0  0  0  0  0  0  0  0  0
  -15.8411  -20.8208   34.0357 N   0  0  0  0  0  0  0  0  0  0  0  0
  -15.4993  -21.9451   33.3488 C   0  0  0  0  0  0  0  0  0  0  0  0
  -13.6747  -25.2764   28.3047 H   0  0  0  0  0  0  0  0  0  0  0  0
  -12.3532  -26.1303   27.5824 H   0  0  0  0  0  0  0  0  0  0  0  0
  -13.5451  -27.0624   28.3956 H   0  0  0  0  0  0  0  0  0  0  0  0
  -12.7420  -26.5852   30.5909 H   0  0  0  0  0  0  0  0  0  0  0  0
  -11.3537  -26.6517   29.7299 H   0  0  0  0  0  0  0  0  0  0  0  0
  -13.0352  -24.1533   30.2563 H   0  0  0  0  0  0  0  0  0  0  0  0
  -11.3342  -21.7631   28.5234 H   0  0  0  0  0  0  0  0  0  0  0  0
  -12.4557  -21.9316   29.8521 H   0  0  0  0  0  0  0  0  0  0  0  0
  -12.7816  -22.7579   28.3155 H   0  0  0  0  0  0  0  0  0  0  0  0
   -9.8727  -23.4793   27.8956 H   0  0  0  0  0  0  0  0  0  0  0  0
  -11.2882  -24.3940   27.4691 H   0  0  0  0  0  0  0  0  0  0  0  0
   -8.9216  -25.0889   29.0574 H   0  0  0  0  0  0  0  0  0  0  0  0
  -10.6311  -27.0065   27.8123 H   0  0  0  0  0  0  0  0  0  0  0  0
   -9.0166  -26.9788   27.8050 H   0  0  0  0  0  0  0  0  0  0  0  0
  -10.6889  -26.1099   31.4582 H   0  0  0  0  0  0  0  0  0  0  0  0
   -9.7787  -24.5704   31.0122 H   0  0  0  0  0  0  0  0  0  0  0  0
   -9.2178  -25.8001   32.9626 H   0  0  0  0  0  0  0  0  0  0  0  0
   -9.4446  -24.1661   33.0589 H   0  0  0  0  0  0  0  0  0  0  0  0
  -13.7474  -23.7842   32.4083 H   0  0  0  0  0  0  0  0  0  0  0  0
  -12.7382  -20.4161   34.1215 H   0  0  0  0  0  0  0  0  0  0  0  0
  -16.7647  -20.5326   34.3401 H   0  0  0  0  0  0  0  0  0  0  0  0
  -16.2468  -22.6620   33.0430 H   0  0  0  0  0  0  0  0  0  0  0  0
  1  2  1  0
  2  3  1  0
  3  4  1  0
  4  5  1  0
  4  6  1  0
  6  7  1  0
  7  8  1  0
  3  9  1  0
  9 10  1  0
 10 11  1  0
  9 12  1  0
 12 13  2  0
 12 14  1  0
 14 15  1  0
 15 16  1  0
 16 17  2  0
 17 18  1  0
 18 19  1  0
 19 15  2  0
  1 20  1  0
  1 21  1  0
  1 22  1  0
  2 23  1  0
  2 24  1  0
  3 25  1  0
  5 26  1  0
  5 27  1  0
  5 28  1  0
  6 29  1  0
  6 30  1  0
  7 31  1  0
  8 32  1  0
  8 33  1  0
 10 34  1  0
 10 35  1  0
 11 36  1  0
 11 37  1  0
 14 38  1  0
 16 39  1  0
 18 40  1  0
 19 41  1  0
M  END
>  <Energy>  (835) 
19.759803113198558

>  <compound_id>  (835) 
2136

>  <target_id>  (835) 
1

>  <reference_id>  (835) 
123

>  <inspiration_ids>  (835) 
[39, 123]

>  <energy_score>  (835) 
68.18594610172453

>  <distance_score>  (835) 
2.3405828036806224

>  <path>  (835) 
/opt/xchem-fragalysis-2/maxwin/BulkDock/SCRATCH/505732/C2136-P123/C2136-P123.minimised.mol

>  <scratch_subdir>  (835) 
/opt/xchem-fragalysis-2/maxwin/BulkDock/SCRATCH/505732/C2136-P123

>  <fragmenstein_runtime>  (835) 
7.539366006851196

>  <fragmenstein_outcome>  (835) 
too moved

>  <fragmenstein_mode>  (835) 
expansion

>  <fragmenstein_error>  (835) 


$$$$
C2137-P39
     RDKit          3D

 43 43  0  0  0  0  0  0  0  0999 V2000
  -17.4007  -28.9105   26.8541 C   0  0  0  0  0  0  0  0  0  0  0  0
  -16.4125  -28.7093   28.0009 C   0  0  0  0  0  0  0  0  0  0  0  0
  -14.9280  -28.7412   27.5219 C   0  0  0  0  0  0  0  0  0  0  0  0
  -14.2661  -27.3910   27.7923 N   0  0  0  0  0  0  0  0  0  0  0  0
  -14.7735  -26.4242   26.7913 C   0  0  0  0  0  0  0  0  0  0  0  0
  -12.7782  -27.2281   27.8570 C   0  0  0  0  0  0  0  0  0  0  0  0
  -12.3504  -26.1505   28.7912 N   0  0  0  0  0  0  0  0  0  0  0  0
  -12.2613  -24.8374   28.1637 N   0  0  0  0  0  0  0  0  0  0  0  0
  -14.1099  -30.2636   28.1340 S   0  0  0  0  0  4  0  0  0  0  0  0
  -14.9229  -31.7285   27.4978 C   0  0  0  0  0  0  0  0  0  0  0  0
  -14.4372  -32.1057   26.1921 N   0  0  0  0  0  0  0  0  0  0  0  0
  -14.1825  -30.1680   29.8795 C   0  0  0  0  0  0  0  0  0  0  0  0
  -14.5912  -31.4419   30.5152 C   0  0  0  0  0  0  0  0  0  0  0  0
  -13.6505  -32.2090   31.1799 C   0  0  0  0  0  0  0  0  0  0  0  0
  -14.0546  -33.4210   31.7066 C   0  0  0  0  0  0  0  0  0  0  0  0
  -15.3180  -33.8842   31.6603 N   0  0  0  0  0  0  0  0  0  0  0  0
  -16.2262  -33.0943   31.0639 C   0  0  0  0  0  0  0  0  0  0  0  0
  -15.9215  -31.8724   30.5013 C   0  0  0  0  0  0  0  0  0  0  0  0
  -17.2463  -29.8748   26.3612 H   0  0  0  0  0  0  0  0  0  0  0  0
  -17.3030  -28.1234   26.1005 H   0  0  0  0  0  0  0  0  0  0  0  0
  -18.4270  -28.8865   27.2342 H   0  0  0  0  0  0  0  0  0  0  0  0
  -16.6161  -29.4733   28.7524 H   0  0  0  0  0  0  0  0  0  0  0  0
  -16.6549  -27.7557   28.4835 H   0  0  0  0  0  0  0  0  0  0  0  0
  -14.9849  -28.8954   26.4473 H   0  0  0  0  0  0  0  0  0  0  0  0
  -14.4405  -26.6693   25.7771 H   0  0  0  0  0  0  0  0  0  0  0  0
  -14.4533  -25.4067   27.0166 H   0  0  0  0  0  0  0  0  0  0  0  0
  -15.8664  -26.3824   26.7904 H   0  0  0  0  0  0  0  0  0  0  0  0
  -12.3450  -28.1379   28.2756 H   0  0  0  0  0  0  0  0  0  0  0  0
  -12.3160  -27.0535   26.8816 H   0  0  0  0  0  0  0  0  0  0  0  0
  -13.0135  -26.1465   29.5751 H   0  0  0  0  0  0  0  0  0  0  0  0
  -12.0265  -24.1304   28.8688 H   0  0  0  0  0  0  0  0  0  0  0  0
  -11.4761  -24.8115   27.5060 H   0  0  0  0  0  0  0  0  0  0  0  0
  -12.8007  -30.3250   27.8004 H   0  0  0  0  0  0  0  0  0  0  0  0
  -15.9969  -31.5403   27.4729 H   0  0  0  0  0  0  0  0  0  0  0  0
  -14.7191  -32.5573   28.1755 H   0  0  0  0  0  0  0  0  0  0  0  0
  -14.8952  -32.9728   25.9079 H   0  0  0  0  0  0  0  0  0  0  0  0
  -13.4475  -32.3475   26.2668 H   0  0  0  0  0  0  0  0  0  0  0  0
  -14.9064  -29.4065   30.1614 H   0  0  0  0  0  0  0  0  0  0  0  0
  -13.2004  -29.8314   30.2246 H   0  0  0  0  0  0  0  0  0  0  0  0
  -12.6137  -31.8972   31.2544 H   0  0  0  0  0  0  0  0  0  0  0  0
  -13.3395  -34.0936   32.1684 H   0  0  0  0  0  0  0  0  0  0  0  0
  -17.2418  -33.4796   31.0551 H   0  0  0  0  0  0  0  0  0  0  0  0
  -16.7087  -31.2864   30.0423 H   0  0  0  0  0  0  0  0  0  0  0  0
  1  2  1  0
  2  3  1  0
  3  4  1  0
  4  5  1  0
  4  6  1  0
  6  7  1  0
  7  8  1  0
  3  9  1  0
  9 10  1  0
 10 11  1  0
  9 12  1  0
 12 13  1  0
 13 14  2  0
 14 15  1  0
 15 16  2  0
 16 17  1  0
 17 18  2  0
 18 13  1  0
  1 19  1  0
  1 20  1  0
  1 21  1  0
  2 22  1  0
  2 23  1  0
  3 24  1  0
  5 25  1  0
  5 26  1  0
  5 27  1  0
  6 28  1  0
  6 29  1  0
  7 30  1  0
  8 31  1  0
  8 32  1  0
  9 33  1  0
 10 34  1  0
 10 35  1  0
 11 36  1  0
 11 37  1  0
 12 38  1  0
 12 39  1  0
 14 40  1  0
 15 41  1  0
 17 42  1  0
 18 43  1  0
M  END
>  <Energy>  (836) 
31.073492874333454

>  <compound_id>  (836) 
2137

>  <target_id>  (836) 
1

>  <reference_id>  (836) 
39

>  <inspiration_ids>  (836) 
[39, 138]

>  <energy_score>  (836) 
-25.07032045297842

>  <distance_score>  (836) 
2.2334064623470686

>  <path>  (836) 
/opt/xchem-fragalysis-2/maxwin/BulkDock/SCRATCH/505732/C2137-P39/C2137-P39.minimised.mol

>  <scratch_subdir>  (836) 
/opt/xchem-fragalysis-2/maxwin/BulkDock/SCRATCH/505732/C2137-P39

>  <fragmenstein_runtime>  (836) 
17.125555992126465

>  <fragmenstein_outcome>  (836) 
too moved

>  <fragmenstein_mode>  (836) 
expansion

>  <fragmenstein_error>  (836) 


$$$$
C2137-P138
     RDKit          3D

 43 43  0  0  0  0  0  0  0  0999 V2000
  -15.6503  -29.2794   29.2525 C   0  0  0  0  0  0  0  0  0  0  0  0
  -14.5531  -28.4705   28.5702 C   0  0  0  0  0  0  0  0  0  0  0  0
  -14.3960  -28.7848   27.0767 C   0  0  0  0  0  0  0  0  0  0  0  0
  -13.6724  -27.7644   26.2645 N   0  0  0  0  0  0  0  0  0  0  0  0
  -14.5969  -26.9767   25.4473 C   0  0  0  0  0  0  0  0  0  0  0  0
  -12.6198  -26.9134   26.8731 C   0  0  0  0  0  0  0  0  0  0  0  0
  -13.1328  -25.6549   27.4472 N   0  0  0  0  0  0  0  0  0  0  0  0
  -12.1176  -24.6171   27.5020 N   0  0  0  0  0  0  0  0  0  0  0  0
  -13.7505  -30.4463   26.7281 S   0  0  0  0  0  4  0  0  0  0  0  0
  -15.0822  -31.6171   26.6148 C   0  0  0  0  0  0  0  0  0  0  0  0
  -14.7369  -32.7083   25.7227 N   0  0  0  0  0  0  0  0  0  0  0  0
  -12.4622  -30.9450   27.8532 C   0  0  0  0  0  0  0  0  0  0  0  0
  -12.9264  -31.8299   28.9721 C   0  0  0  0  0  0  0  0  0  0  0  0
  -12.9893  -31.3654   30.2913 C   0  0  0  0  0  0  0  0  0  0  0  0
  -13.4365  -32.2209   31.2899 C   0  0  0  0  0  0  0  0  0  0  0  0
  -13.8190  -33.4935   31.0671 N   0  0  0  0  0  0  0  0  0  0  0  0
  -13.7207  -33.9355   29.7984 C   0  0  0  0  0  0  0  0  0  0  0  0
  -13.2569  -33.1670   28.7429 C   0  0  0  0  0  0  0  0  0  0  0  0
  -16.6194  -29.0994   28.7759 H   0  0  0  0  0  0  0  0  0  0  0  0
  -15.7341  -28.9823   30.3031 H   0  0  0  0  0  0  0  0  0  0  0  0
  -15.4555  -30.3512   29.2265 H   0  0  0  0  0  0  0  0  0  0  0  0
  -13.6102  -28.6023   29.1062 H   0  0  0  0  0  0  0  0  0  0  0  0
  -14.8477  -27.4227   28.6895 H   0  0  0  0  0  0  0  0  0  0  0  0
  -15.4141  -28.8616   26.6699 H   0  0  0  0  0  0  0  0  0  0  0  0
  -14.0581  -26.2757   24.8007 H   0  0  0  0  0  0  0  0  0  0  0  0
  -15.3099  -26.4104   26.0572 H   0  0  0  0  0  0  0  0  0  0  0  0
  -15.1684  -27.6291   24.7777 H   0  0  0  0  0  0  0  0  0  0  0  0
  -12.0566  -27.4968   27.5974 H   0  0  0  0  0  0  0  0  0  0  0  0
  -11.9157  -26.6788   26.0636 H   0  0  0  0  0  0  0  0  0  0  0  0
  -13.5146  -25.8545   28.3738 H   0  0  0  0  0  0  0  0  0  0  0  0
  -12.4332  -23.8140   28.0576 H   0  0  0  0  0  0  0  0  0  0  0  0
  -11.9411  -24.2193   26.5733 H   0  0  0  0  0  0  0  0  0  0  0  0
  -13.2399  -30.3852   25.4896 H   0  0  0  0  0  0  0  0  0  0  0  0
  -15.3456  -31.9769   27.6083 H   0  0  0  0  0  0  0  0  0  0  0  0
  -15.9488  -31.0811   26.2170 H   0  0  0  0  0  0  0  0  0  0  0  0
  -14.6822  -32.3577   24.7692 H   0  0  0  0  0  0  0  0  0  0  0  0
  -15.5030  -33.3827   25.7206 H   0  0  0  0  0  0  0  0  0  0  0  0
  -11.9867  -30.0355   28.2265 H   0  0  0  0  0  0  0  0  0  0  0  0
  -11.7114  -31.4694   27.2515 H   0  0  0  0  0  0  0  0  0  0  0  0
  -12.7097  -30.3504   30.5539 H   0  0  0  0  0  0  0  0  0  0  0  0
  -13.5066  -31.8946   32.3232 H   0  0  0  0  0  0  0  0  0  0  0  0
  -14.0216  -34.9682   29.6444 H   0  0  0  0  0  0  0  0  0  0  0  0
  -13.1892  -33.6031   27.7510 H   0  0  0  0  0  0  0  0  0  0  0  0
  1  2  1  0
  2  3  1  0
  3  4  1  0
  4  5  1  0
  4  6  1  0
  6  7  1  0
  7  8  1  0
  3  9  1  0
  9 10  1  0
 10 11  1  0
  9 12  1  0
 12 13  1  0
 13 14  2  0
 14 15  1  0
 15 16  2  0
 16 17  1  0
 17 18  2  0
 18 13  1  0
  1 19  1  0
  1 20  1  0
  1 21  1  0
  2 22  1  0
  2 23  1  0
  3 24  1  0
  5 25  1  0
  5 26  1  0
  5 27  1  0
  6 28  1  0
  6 29  1  0
  7 30  1  0
  8 31  1  0
  8 32  1  0
  9 33  1  0
 10 34  1  0
 10 35  1  0
 11 36  1  0
 11 37  1  0
 12 38  1  0
 12 39  1  0
 14 40  1  0
 15 41  1  0
 17 42  1  0
 18 43  1  0
M  END
>  <Energy>  (837) 
25.028404882736652

>  <compound_id>  (837) 
2137

>  <target_id>  (837) 
1

>  <reference_id>  (837) 
138

>  <inspiration_ids>  (837) 
[39, 138]

>  <energy_score>  (837) 
-31.115408444575422

>  <distance_score>  (837) 
1.6520518183369064

>  <path>  (837) 
/opt/xchem-fragalysis-2/maxwin/BulkDock/SCRATCH/505732/C2137-P138/C2137-P138.minimised.mol

>  <scratch_subdir>  (837) 
/opt/xchem-fragalysis-2/maxwin/BulkDock/SCRATCH/505732/C2137-P138

>  <fragmenstein_runtime>  (837) 
19.410811185836792

>  <fragmenstein_outcome>  (837) 
too moved

>  <fragmenstein_mode>  (837) 
expansion

>  <fragmenstein_error>  (837) 


$$$$
C2138-P39
     RDKit          3D

 53 57  0  0  0  0  0  0  0  0999 V2000
  -17.7509  -21.1399   37.0197 N   0  0  0  0  0  0  0  0  0  0  0  0
  -17.5742  -22.3425   36.2299 C   0  0  0  0  0  0  0  0  0  0  0  0
  -17.2453  -22.0543   34.5291 S   0  0  0  0  0  4  0  0  0  0  0  0
  -17.2310  -20.2974   34.2701 C   0  0  0  0  0  0  0  0  0  0  0  0
  -15.9773  -19.6849   34.7887 C   0  0  0  0  0  0  0  0  0  0  0  0
  -16.0457  -18.6750   35.7417 C   0  0  0  0  0  0  0  0  0  0  0  0
  -14.8666  -18.1323   36.2186 C   0  0  0  0  0  0  0  0  0  0  0  0
  -13.6404  -18.5194   35.8185 N   0  0  0  0  0  0  0  0  0  0  0  0
  -13.5856  -19.4445   34.8558 C   0  0  0  0  0  0  0  0  0  0  0  0
  -14.7160  -20.0166   34.3109 C   0  0  0  0  0  0  0  0  0  0  0  0
  -15.8750  -23.0727   33.6283 C   0  0  0  0  0  0  0  0  0  0  0  0
  -14.5449  -23.3763   34.3353 C   0  0  0  0  0  0  0  0  0  0  0  0
  -13.1308  -23.2259   33.6379 C   0  0  0  0  0  0  0  0  0  0  0  0
  -13.0426  -23.0689   32.0878 C   0  0  0  0  0  0  0  0  0  0  0  0
  -11.8982  -22.0584   31.6588 C   0  0  0  0  0  0  0  0  0  0  0  0
  -11.7335  -21.8792   30.1060 C   0  0  0  0  0  0  0  0  0  0  0  0
  -11.8024  -23.1772   29.4030 C   0  0  0  0  0  0  0  0  0  0  0  0
  -11.6013  -23.3883   28.0674 N   0  0  0  0  0  0  0  0  0  0  0  0
  -11.6490  -24.7398   27.8286 C   0  0  0  0  0  0  0  0  0  0  0  0
  -11.9615  -25.3698   29.0179 C   0  0  0  0  0  0  0  0  0  0  0  0
  -12.1342  -24.3619   30.0024 C   0  0  0  0  0  0  0  0  0  0  0  0
  -12.4878  -24.4097   31.4586 C   0  0  0  0  0  0  0  0  0  0  0  0
  -14.3757  -22.4334   31.6970 C   0  0  0  0  0  0  0  0  0  0  0  0
  -14.5237  -21.4295   30.8734 N   0  0  0  0  0  0  0  0  0  0  0  0
  -15.7602  -20.8636   30.9513 N   0  0  0  0  0  0  0  0  0  0  0  0
  -16.4532  -21.6775   31.6899 C   0  0  0  0  0  0  0  0  0  0  0  0
  -15.5886  -22.4881   32.3508 N   0  0  0  0  0  0  0  0  0  0  0  0
  -18.0193  -21.4214   37.9635 H   0  0  0  0  0  0  0  0  0  0  0  0
  -16.8440  -20.6947   37.1381 H   0  0  0  0  0  0  0  0  0  0  0  0
  -18.5108  -22.9098   36.2470 H   0  0  0  0  0  0  0  0  0  0  0  0
  -16.8066  -22.9983   36.6206 H   0  0  0  0  0  0  0  0  0  0  0  0
  -18.3702  -22.4705   33.9037 H   0  0  0  0  0  0  0  0  0  0  0  0
  -17.3780  -20.0388   33.2241 H   0  0  0  0  0  0  0  0  0  0  0  0
  -18.1172  -19.9017   34.7788 H   0  0  0  0  0  0  0  0  0  0  0  0
  -16.9967  -18.3147   36.1238 H   0  0  0  0  0  0  0  0  0  0  0  0
  -14.8799  -17.3466   36.9691 H   0  0  0  0  0  0  0  0  0  0  0  0
  -12.5875  -19.7057   34.5162 H   0  0  0  0  0  0  0  0  0  0  0  0
  -14.5658  -20.6888   33.4967 H   0  0  0  0  0  0  0  0  0  0  0  0
  -16.4138  -24.0064   33.4385 H   0  0  0  0  0  0  0  0  0  0  0  0
  -14.6123  -24.3773   34.7728 H   0  0  0  0  0  0  0  0  0  0  0  0
  -14.5344  -22.6859   35.1570 H   0  0  0  0  0  0  0  0  0  0  0  0
  -12.6641  -22.3419   34.0925 H   0  0  0  0  0  0  0  0  0  0  0  0
  -12.4978  -24.0589   33.9664 H   0  0  0  0  0  0  0  0  0  0  0  0
  -12.0384  -21.0896   32.1416 H   0  0  0  0  0  0  0  0  0  0  0  0
  -10.9437  -22.4293   32.0575 H   0  0  0  0  0  0  0  0  0  0  0  0
  -10.7942  -21.3661   29.9039 H   0  0  0  0  0  0  0  0  0  0  0  0
  -12.4881  -21.2474   29.6554 H   0  0  0  0  0  0  0  0  0  0  0  0
  -11.4326  -22.6712   27.3719 H   0  0  0  0  0  0  0  0  0  0  0  0
  -11.4675  -25.1318   26.8371 H   0  0  0  0  0  0  0  0  0  0  0  0
  -12.0713  -26.4366   29.1547 H   0  0  0  0  0  0  0  0  0  0  0  0
  -11.5377  -24.6392   31.9698 H   0  0  0  0  0  0  0  0  0  0  0  0
  -13.0800  -25.2680   31.6885 H   0  0  0  0  0  0  0  0  0  0  0  0
  -17.5259  -21.6838   31.8112 H   0  0  0  0  0  0  0  0  0  0  0  0
  1  2  1  0
  2  3  1  0
  3  4  1  0
  4  5  1  0
  5  6  2  0
  6  7  1  0
  7  8  2  0
  8  9  1  0
  9 10  2  0
  3 11  1  0
 11 12  1  0
 12 13  1  0
 13 14  1  0
 14 15  1  0
 15 16  1  0
 16 17  1  0
 17 18  1  0
 18 19  1  0
 19 20  2  0
 20 21  1  0
 21 22  1  0
 14 23  1  0
 23 24  2  0
 24 25  1  0
 25 26  2  0
 26 27  1  0
 10  5  1  0
 27 11  1  0
 22 14  1  0
 27 23  1  0
 21 17  2  0
  1 28  1  0
  1 29  1  0
  2 30  1  0
  2 31  1  0
  3 32  1  0
  4 33  1  0
  4 34  1  0
  6 35  1  0
  7 36  1  0
  9 37  1  0
 10 38  1  0
 11 39  1  0
 12 40  1  0
 12 41  1  0
 13 42  1  0
 13 43  1  0
 15 44  1  0
 15 45  1  0
 16 46  1  0
 16 47  1  0
 18 48  1  0
 19 49  1  0
 20 50  1  0
 22 51  1  0
 22 52  1  0
 26 53  1  0
M  END
>  <Energy>  (838) 
82.03065936617611

>  <compound_id>  (838) 
2138

>  <target_id>  (838) 
1

>  <reference_id>  (838) 
39

>  <inspiration_ids>  (838) 
[39, 161]

>  <energy_score>  (838) 
-21.488595305977526

>  <distance_score>  (838) 
2.56960616839589

>  <path>  (838) 
/opt/xchem-fragalysis-2/maxwin/BulkDock/SCRATCH/505732/C2138-P39/C2138-P39.minimised.mol

>  <scratch_subdir>  (838) 
/opt/xchem-fragalysis-2/maxwin/BulkDock/SCRATCH/505732/C2138-P39

>  <fragmenstein_runtime>  (838) 
3.5635035037994385

>  <fragmenstein_outcome>  (838) 
too moved

>  <fragmenstein_mode>  (838) 
expansion

>  <fragmenstein_error>  (838) 


$$$$
C2138-P161
     RDKit          3D

 53 57  0  0  0  0  0  0  0  0999 V2000
  -15.5261  -21.3989   36.7297 N   0  0  0  0  0  0  0  0  0  0  0  0
  -16.8546  -21.8790   36.9872 C   0  0  0  0  0  0  0  0  0  0  0  0
  -17.6442  -22.7376   35.6530 S   0  0  0  0  0  4  0  0  0  0  0  0
  -18.6899  -21.5417   34.8362 C   0  0  0  0  0  0  0  0  0  0  0  0
  -17.7427  -20.5455   34.2842 C   0  0  0  0  0  0  0  0  0  0  0  0
  -17.2716  -19.4756   35.0536 C   0  0  0  0  0  0  0  0  0  0  0  0
  -16.0759  -18.8916   34.6933 C   0  0  0  0  0  0  0  0  0  0  0  0
  -15.3957  -19.2651   33.5972 N   0  0  0  0  0  0  0  0  0  0  0  0
  -16.0031  -20.1545   32.7795 C   0  0  0  0  0  0  0  0  0  0  0  0
  -17.1644  -20.8106   33.0600 C   0  0  0  0  0  0  0  0  0  0  0  0
  -16.5411  -23.7011   34.5220 C   0  0  0  0  0  0  0  0  0  0  0  0
  -15.0589  -23.3094   34.3467 C   0  0  0  0  0  0  0  0  0  0  0  0
  -14.4009  -24.2263   33.2711 C   0  0  0  0  0  0  0  0  0  0  0  0
  -14.9070  -24.0548   31.8242 C   0  0  0  0  0  0  0  0  0  0  0  0
  -14.3317  -22.6601   31.3837 C   0  0  0  0  0  0  0  0  0  0  0  0
  -12.8992  -22.6902   30.7678 C   0  0  0  0  0  0  0  0  0  0  0  0
  -12.9596  -23.5360   29.5712 C   0  0  0  0  0  0  0  0  0  0  0  0
  -12.3596  -23.3392   28.3598 N   0  0  0  0  0  0  0  0  0  0  0  0
  -12.7271  -24.3705   27.5274 C   0  0  0  0  0  0  0  0  0  0  0  0
  -13.5762  -25.2061   28.2315 C   0  0  0  0  0  0  0  0  0  0  0  0
  -13.7080  -24.6812   29.5488 C   0  0  0  0  0  0  0  0  0  0  0  0
  -14.3997  -25.1874   30.8075 C   0  0  0  0  0  0  0  0  0  0  0  0
  -16.4473  -24.2198   32.0199 C   0  0  0  0  0  0  0  0  0  0  0  0
  -17.2987  -24.8348   31.2089 N   0  0  0  0  0  0  0  0  0  0  0  0
  -18.5249  -24.9448   31.8105 N   0  0  0  0  0  0  0  0  0  0  0  0
  -18.3879  -24.5137   33.0362 C   0  0  0  0  0  0  0  0  0  0  0  0
  -17.1256  -24.0323   33.2195 N   0  0  0  0  0  0  0  0  0  0  0  0
  -15.4472  -20.9375   35.8279 H   0  0  0  0  0  0  0  0  0  0  0  0
  -15.2424  -20.7208   37.4335 H   0  0  0  0  0  0  0  0  0  0  0  0
  -16.8166  -22.6006   37.8099 H   0  0  0  0  0  0  0  0  0  0  0  0
  -17.5195  -21.0745   37.3111 H   0  0  0  0  0  0  0  0  0  0  0  0
  -18.4738  -23.6439   36.2184 H   0  0  0  0  0  0  0  0  0  0  0  0
  -19.3631  -21.1105   35.5823 H   0  0  0  0  0  0  0  0  0  0  0  0
  -19.2896  -22.0395   34.0724 H   0  0  0  0  0  0  0  0  0  0  0  0
  -17.7597  -19.1771   35.9754 H   0  0  0  0  0  0  0  0  0  0  0  0
  -15.6222  -18.1090   35.2944 H   0  0  0  0  0  0  0  0  0  0  0  0
  -15.5273  -20.3277   31.8282 H   0  0  0  0  0  0  0  0  0  0  0  0
  -17.5639  -21.5418   32.3676 H   0  0  0  0  0  0  0  0  0  0  0  0
  -16.5307  -24.6748   35.0385 H   0  0  0  0  0  0  0  0  0  0  0  0
  -14.9553  -22.2583   34.0917 H   0  0  0  0  0  0  0  0  0  0  0  0
  -14.5456  -23.4318   35.3041 H   0  0  0  0  0  0  0  0  0  0  0  0
  -14.6627  -25.2206   33.6005 H   0  0  0  0  0  0  0  0  0  0  0  0
  -13.3353  -24.1108   33.2504 H   0  0  0  0  0  0  0  0  0  0  0  0
  -15.0338  -22.1932   30.6976 H   0  0  0  0  0  0  0  0  0  0  0  0
  -14.2481  -21.9849   32.2324 H   0  0  0  0  0  0  0  0  0  0  0  0
  -12.1954  -23.1039   31.4960 H   0  0  0  0  0  0  0  0  0  0  0  0
  -12.5291  -21.7008   30.5122 H   0  0  0  0  0  0  0  0  0  0  0  0
  -11.7533  -22.5664   28.1072 H   0  0  0  0  0  0  0  0  0  0  0  0
  -12.3597  -24.4095   26.5118 H   0  0  0  0  0  0  0  0  0  0  0  0
  -14.0289  -26.1130   27.8540 H   0  0  0  0  0  0  0  0  0  0  0  0
  -13.6755  -25.8133   31.3305 H   0  0  0  0  0  0  0  0  0  0  0  0
  -15.2095  -25.8596   30.5037 H   0  0  0  0  0  0  0  0  0  0  0  0
  -19.1422  -24.5467   33.8082 H   0  0  0  0  0  0  0  0  0  0  0  0
  1  2  1  0
  2  3  1  0
  3  4  1  0
  4  5  1  0
  5  6  2  0
  6  7  1  0
  7  8  2  0
  8  9  1  0
  9 10  2  0
  3 11  1  0
 11 12  1  0
 12 13  1  0
 13 14  1  0
 14 15  1  0
 15 16  1  0
 16 17  1  0
 17 18  1  0
 18 19  1  0
 19 20  2  0
 20 21  1  0
 21 22  1  0
 14 23  1  0
 23 24  2  0
 24 25  1  0
 25 26  2  0
 26 27  1  0
 10  5  1  0
 27 11  1  0
 22 14  1  0
 27 23  1  0
 21 17  2  0
  1 28  1  0
  1 29  1  0
  2 30  1  0
  2 31  1  0
  3 32  1  0
  4 33  1  0
  4 34  1  0
  6 35  1  0
  7 36  1  0
  9 37  1  0
 10 38  1  0
 11 39  1  0
 12 40  1  0
 12 41  1  0
 13 42  1  0
 13 43  1  0
 15 44  1  0
 15 45  1  0
 16 46  1  0
 16 47  1  0
 18 48  1  0
 19 49  1  0
 20 50  1  0
 22 51  1  0
 22 52  1  0
 26 53  1  0
M  END
>  <Energy>  (839) 
62.48638593672608

>  <compound_id>  (839) 
2138

>  <target_id>  (839) 
1

>  <reference_id>  (839) 
161

>  <inspiration_ids>  (839) 
[39, 161]

>  <energy_score>  (839) 
-41.032868735424415

>  <distance_score>  (839) 
2.584549428305186

>  <path>  (839) 
/opt/xchem-fragalysis-2/maxwin/BulkDock/SCRATCH/505732/C2138-P161/C2138-P161.minimised.mol

>  <scratch_subdir>  (839) 
/opt/xchem-fragalysis-2/maxwin/BulkDock/SCRATCH/505732/C2138-P161

>  <fragmenstein_runtime>  (839) 
3.8191912174224854

>  <fragmenstein_outcome>  (839) 
too moved

>  <fragmenstein_mode>  (839) 
expansion

>  <fragmenstein_error>  (839) 


$$$$
C2140-P40
     RDKit          3D

 56 58  0  0  0  0  0  0  0  0999 V2000
   -1.2454   -0.0435   29.9106 C   0  0  0  0  0  0  0  0  0  0  0  0
    0.4382    0.4149   28.4613 C   0  0  0  0  0  0  0  0  0  0  0  0
    0.2181    1.6058   27.3388 C   0  0  0  0  0  0  0  0  0  0  0  0
    0.9275    2.3856   26.4982 N   0  0  0  0  0  0  0  0  0  0  0  0
    0.0118    3.2844   25.9434 C   0  0  0  0  0  0  0  0  0  0  0  0
   -1.2333    3.1147   26.5552 C   0  0  0  0  0  0  0  0  0  0  0  0
   -1.0162    2.0893   27.4327 C   0  0  0  0  0  0  0  0  0  0  0  0
   -1.3123    1.2659   28.5394 C   0  0  0  0  0  0  0  0  0  0  0  0
   -1.1846   -0.6411   28.0720 C   0  0  0  0  0  0  0  0  0  0  0  0
   -0.0103   -1.4020   29.1666 C   0  0  0  0  0  0  0  0  0  0  0  0
    0.5596   -2.7582   29.2526 C   0  0  0  0  0  0  0  0  0  0  0  0
    0.1927   -3.4936   30.5191 N   0  0  0  0  0  0  0  0  0  0  0  0
    0.1647   -4.9826   30.2522 C   0  0  0  0  0  0  0  0  0  0  0  0
    1.5298   -5.5176   29.8359 C   0  0  0  0  0  0  0  0  0  0  0  0
   -0.5395   -5.8431   31.3395 C   0  0  0  0  0  0  0  0  0  0  0  0
    0.3198   -6.4891   32.3289 N   0  0  0  0  0  0  0  0  0  0  0  0
    0.9491   -2.9578   31.9364 S   0  0  0  0  0  0  0  0  0  0  0  0
    2.1154   -2.1861   31.5716 O   0  0  0  0  0  0  0  0  0  0  0  0
    1.0355   -4.0146   32.9127 O   0  0  0  0  0  0  0  0  0  0  0  0
   -0.1738   -1.8575   32.5575 N   0  0  0  0  0  0  0  0  0  0  0  0
   -1.5146   -2.4253   32.8955 C   0  0  0  0  0  0  0  0  0  0  0  0
   -2.5213   -1.2975   33.2204 C   0  0  0  0  0  0  0  0  0  0  0  0
   -1.9400   -0.0725   33.8079 N   0  0  0  0  0  0  0  0  0  0  0  0
   -0.7482   -0.4396   34.5879 C   0  0  0  0  0  0  0  0  0  0  0  0
    0.3693   -1.0601   33.7201 C   0  0  0  0  0  0  0  0  0  0  0  0
    0.5851   -0.0954   30.2946 N   0  0  0  0  0  0  0  0  0  0  0  0
   -0.1863    1.5417   29.8645 N   0  0  0  0  0  0  0  0  0  0  0  0
   -1.3735    0.5551   30.8777 H   0  0  0  0  0  0  0  0  0  0  0  0
   -1.3420   -1.0373   30.4575 H   0  0  0  0  0  0  0  0  0  0  0  0
   -2.3503   -0.0114   29.5910 H   0  0  0  0  0  0  0  0  0  0  0  0
    0.8358   -0.3622   27.7252 H   0  0  0  0  0  0  0  0  0  0  0  0
    1.4535    0.7854   28.8447 H   0  0  0  0  0  0  0  0  0  0  0  0
    1.9218    2.3497   26.3109 H   0  0  0  0  0  0  0  0  0  0  0  0
    0.3482    4.0118   25.2172 H   0  0  0  0  0  0  0  0  0  0  0  0
   -2.1099    3.7341   26.4201 H   0  0  0  0  0  0  0  0  0  0  0  0
   -1.5866   -1.0341   27.1455 H   0  0  0  0  0  0  0  0  0  0  0  0
    0.1838   -3.3114   28.3840 H   0  0  0  0  0  0  0  0  0  0  0  0
    1.6480   -2.7129   29.1396 H   0  0  0  0  0  0  0  0  0  0  0  0
   -0.4840   -5.0887   29.3757 H   0  0  0  0  0  0  0  0  0  0  0  0
    1.9307   -4.9912   28.9644 H   0  0  0  0  0  0  0  0  0  0  0  0
    1.4452   -6.5687   29.5452 H   0  0  0  0  0  0  0  0  0  0  0  0
    2.2673   -5.4210   30.6375 H   0  0  0  0  0  0  0  0  0  0  0  0
   -1.0746   -6.6542   30.8313 H   0  0  0  0  0  0  0  0  0  0  0  0
   -1.2875   -5.2431   31.8601 H   0  0  0  0  0  0  0  0  0  0  0  0
    0.7896   -5.7368   32.8586 H   0  0  0  0  0  0  0  0  0  0  0  0
   -0.2632   -6.9556   33.0267 H   0  0  0  0  0  0  0  0  0  0  0  0
   -1.4093   -3.0906   33.7601 H   0  0  0  0  0  0  0  0  0  0  0  0
   -1.9109   -3.0017   32.0554 H   0  0  0  0  0  0  0  0  0  0  0  0
   -3.2891   -1.6901   33.8969 H   0  0  0  0  0  0  0  0  0  0  0  0
   -3.0497   -1.0081   32.3042 H   0  0  0  0  0  0  0  0  0  0  0  0
   -1.6103    0.5010   33.0271 H   0  0  0  0  0  0  0  0  0  0  0  0
   -1.0369   -1.1385   35.3835 H   0  0  0  0  0  0  0  0  0  0  0  0
   -0.3577    0.4503   35.0938 H   0  0  0  0  0  0  0  0  0  0  0  0
    0.9823   -0.2526   33.3041 H   0  0  0  0  0  0  0  0  0  0  0  0
    1.0056   -1.6834   34.3581 H   0  0  0  0  0  0  0  0  0  0  0  0
    1.3356   -0.1870   30.9766 H   0  0  0  0  0  0  0  0  0  0  0  0
  1  2  1  0
  2  3  1  0
  3  4  1  0
  4  5  1  0
  5  6  2  0
  6  7  1  0
  7  8  1  0
  8  9  1  0
  9 10  2  0
 10 11  1  0
 11 12  1  0
 12 13  1  0
 13 14  1  0
 13 15  1  0
 15 16  1  0
 12 17  1  0
 17 18  2  0
 17 19  2  0
 17 20  1  0
 20 21  1  0
 21 22  1  0
 22 23  1  0
 23 24  1  0
 24 25  1  0
 10 26  1  0
 26 27  1  0
  7  3  2  0
 27  8  2  0
 25 20  1  0
  1 28  1  0
  1 29  1  0
  1 30  1  0
  2 31  1  0
  2 32  1  0
  4 33  1  0
  5 34  1  0
  6 35  1  0
  9 36  1  0
 11 37  1  0
 11 38  1  0
 13 39  1  0
 14 40  1  0
 14 41  1  0
 14 42  1  0
 15 43  1  0
 15 44  1  0
 16 45  1  0
 16 46  1  0
 21 47  1  0
 21 48  1  0
 22 49  1  0
 22 50  1  0
 23 51  1  0
 24 52  1  0
 24 53  1  0
 25 54  1  0
 25 55  1  0
 26 56  1  0
M  END
>  <Energy>  (840) 
1090.9454641035334

>  <compound_id>  (840) 
2140

>  <target_id>  (840) 
1

>  <reference_id>  (840) 
40

>  <inspiration_ids>  (840) 
[40, 13]

>  <energy_score>  (840) 
1106.9049075901894

>  <distance_score>  (840) 
1.9426286659759573

>  <path>  (840) 
/opt/xchem-fragalysis-2/maxwin/BulkDock/SCRATCH/505732/C2140-P40/C2140-P40.minimised.mol

>  <scratch_subdir>  (840) 
/opt/xchem-fragalysis-2/maxwin/BulkDock/SCRATCH/505732/C2140-P40

>  <fragmenstein_runtime>  (840) 
20.788522243499756

>  <fragmenstein_outcome>  (840) 
too moved

>  <fragmenstein_mode>  (840) 
expansion

>  <fragmenstein_error>  (840) 


$$$$
C2140-P13
     RDKit          3D

 56 58  0  0  0  0  0  0  0  0999 V2000
   -1.2867   -0.2134   30.0177 C   0  0  0  0  0  0  0  0  0  0  0  0
    0.4389    0.2658   28.6253 C   0  0  0  0  0  0  0  0  0  0  0  0
    0.2348    1.4428   27.4841 C   0  0  0  0  0  0  0  0  0  0  0  0
    0.9612    2.2476   26.6822 N   0  0  0  0  0  0  0  0  0  0  0  0
    0.0500    3.1353   26.1004 C   0  0  0  0  0  0  0  0  0  0  0  0
   -1.2152    2.9341   26.6594 C   0  0  0  0  0  0  0  0  0  0  0  0
   -1.0123    1.8998   27.5303 C   0  0  0  0  0  0  0  0  0  0  0  0
   -1.3324    1.0773   28.6315 C   0  0  0  0  0  0  0  0  0  0  0  0
   -1.1418   -0.8306   28.1875 C   0  0  0  0  0  0  0  0  0  0  0  0
    0.0026   -1.5537   29.3364 C   0  0  0  0  0  0  0  0  0  0  0  0
    0.5832   -2.9031   29.4728 C   0  0  0  0  0  0  0  0  0  0  0  0
    0.2196   -3.5856   30.7685 N   0  0  0  0  0  0  0  0  0  0  0  0
    0.1709   -5.0813   30.5702 C   0  0  0  0  0  0  0  0  0  0  0  0
    1.5502   -5.6663   30.2993 C   0  0  0  0  0  0  0  0  0  0  0  0
   -0.6354   -5.8716   31.6364 C   0  0  0  0  0  0  0  0  0  0  0  0
    0.0698   -6.4444   32.7774 N   0  0  0  0  0  0  0  0  0  0  0  0
    0.9789   -3.0019   32.1620 S   0  0  0  0  0  0  0  0  0  0  0  0
    2.1272   -2.2202   31.7609 O   0  0  0  0  0  0  0  0  0  0  0  0
    1.1101   -4.0423   33.1501 O   0  0  0  0  0  0  0  0  0  0  0  0
   -0.1492   -1.9052   32.7731 N   0  0  0  0  0  0  0  0  0  0  0  0
   -1.4896   -2.4717   33.1210 C   0  0  0  0  0  0  0  0  0  0  0  0
   -2.4994   -1.3381   33.4205 C   0  0  0  0  0  0  0  0  0  0  0  0
   -1.9128   -0.0823   33.9357 N   0  0  0  0  0  0  0  0  0  0  0  0
   -0.7311   -0.4140   34.7456 C   0  0  0  0  0  0  0  0  0  0  0  0
    0.3896   -1.0902   33.9250 C   0  0  0  0  0  0  0  0  0  0  0  0
    0.5296   -0.2210   30.4685 N   0  0  0  0  0  0  0  0  0  0  0  0
   -0.2575    1.3930   29.9914 N   0  0  0  0  0  0  0  0  0  0  0  0
   -2.3733   -0.2625   29.6427 H   0  0  0  0  0  0  0  0  0  0  0  0
   -1.5137    0.4355   30.9333 H   0  0  0  0  0  0  0  0  0  0  0  0
   -1.3464   -1.1763   30.6229 H   0  0  0  0  0  0  0  0  0  0  0  0
    0.8806   -0.5105   27.9137 H   0  0  0  0  0  0  0  0  0  0  0  0
    1.4319    0.6617   29.0410 H   0  0  0  0  0  0  0  0  0  0  0  0
    1.9630    2.2360   26.5367 H   0  0  0  0  0  0  0  0  0  0  0  0
    0.4024    3.8808   25.4008 H   0  0  0  0  0  0  0  0  0  0  0  0
   -2.0947    3.5447   26.5053 H   0  0  0  0  0  0  0  0  0  0  0  0
   -1.5118   -1.2453   27.2568 H   0  0  0  0  0  0  0  0  0  0  0  0
    0.2127   -3.4910   28.6254 H   0  0  0  0  0  0  0  0  0  0  0  0
    1.6715   -2.8588   29.3581 H   0  0  0  0  0  0  0  0  0  0  0  0
   -0.4159   -5.2221   29.6561 H   0  0  0  0  0  0  0  0  0  0  0  0
    2.0389   -5.1855   29.4464 H   0  0  0  0  0  0  0  0  0  0  0  0
    1.4502   -6.7265   30.0550 H   0  0  0  0  0  0  0  0  0  0  0  0
    2.2227   -5.5675   31.1563 H   0  0  0  0  0  0  0  0  0  0  0  0
   -1.1209   -6.7153   31.1313 H   0  0  0  0  0  0  0  0  0  0  0  0
   -1.4311   -5.2381   32.0228 H   0  0  0  0  0  0  0  0  0  0  0  0
    0.8435   -7.0277   32.4739 H   0  0  0  0  0  0  0  0  0  0  0  0
    0.5015   -5.6697   33.3042 H   0  0  0  0  0  0  0  0  0  0  0  0
   -1.3841   -3.1203   33.9982 H   0  0  0  0  0  0  0  0  0  0  0  0
   -1.8845   -3.0606   32.2900 H   0  0  0  0  0  0  0  0  0  0  0  0
   -3.2471   -1.7049   34.1331 H   0  0  0  0  0  0  0  0  0  0  0  0
   -3.0527   -1.0945   32.5055 H   0  0  0  0  0  0  0  0  0  0  0  0
   -1.5744    0.4390   33.1223 H   0  0  0  0  0  0  0  0  0  0  0  0
   -1.0321   -1.0661   35.5757 H   0  0  0  0  0  0  0  0  0  0  0  0
   -0.3382    0.4993   35.2062 H   0  0  0  0  0  0  0  0  0  0  0  0
    1.0345   -0.3114   33.5025 H   0  0  0  0  0  0  0  0  0  0  0  0
    0.9922   -1.7136   34.5948 H   0  0  0  0  0  0  0  0  0  0  0  0
    1.2529   -0.2900   31.1815 H   0  0  0  0  0  0  0  0  0  0  0  0
  1  2  1  0
  2  3  1  0
  3  4  1  0
  4  5  1  0
  5  6  2  0
  6  7  1  0
  7  8  1  0
  8  9  1  0
  9 10  2  0
 10 11  1  0
 11 12  1  0
 12 13  1  0
 13 14  1  0
 13 15  1  0
 15 16  1  0
 12 17  1  0
 17 18  2  0
 17 19  2  0
 17 20  1  0
 20 21  1  0
 21 22  1  0
 22 23  1  0
 23 24  1  0
 24 25  1  0
 10 26  1  0
 26 27  1  0
  7  3  2  0
 27  8  2  0
 25 20  1  0
  1 28  1  0
  1 29  1  0
  1 30  1  0
  2 31  1  0
  2 32  1  0
  4 33  1  0
  5 34  1  0
  6 35  1  0
  9 36  1  0
 11 37  1  0
 11 38  1  0
 13 39  1  0
 14 40  1  0
 14 41  1  0
 14 42  1  0
 15 43  1  0
 15 44  1  0
 16 45  1  0
 16 46  1  0
 21 47  1  0
 21 48  1  0
 22 49  1  0
 22 50  1  0
 23 51  1  0
 24 52  1  0
 24 53  1  0
 25 54  1  0
 25 55  1  0
 26 56  1  0
M  END
>  <Energy>  (841) 
1091.7293972666521

>  <compound_id>  (841) 
2140

>  <target_id>  (841) 
1

>  <reference_id>  (841) 
13

>  <inspiration_ids>  (841) 
[40, 13]

>  <energy_score>  (841) 
1107.6888407533054

>  <distance_score>  (841) 
1.9473948157042416

>  <path>  (841) 
/opt/xchem-fragalysis-2/maxwin/BulkDock/SCRATCH/505732/C2140-P13/C2140-P13.minimised.mol

>  <scratch_subdir>  (841) 
/opt/xchem-fragalysis-2/maxwin/BulkDock/SCRATCH/505732/C2140-P13

>  <fragmenstein_runtime>  (841) 
21.39480495452881

>  <fragmenstein_outcome>  (841) 
too moved

>  <fragmenstein_mode>  (841) 
expansion

>  <fragmenstein_error>  (841) 


$$$$
C2142-P40
     RDKit          3D

 41 44  0  0  0  0  0  0  0  0999 V2000
   -0.0384   -7.6936   31.8069 N   0  0  0  0  0  0  0  0  0  0  0  0
    0.1889   -6.2635   32.0250 C   0  0  0  0  0  0  0  0  0  0  0  0
    1.4880   -5.9360   32.8144 C   0  0  0  0  0  0  0  0  0  0  0  0
    1.7149   -4.5708   33.5414 C   0  0  0  0  0  0  0  0  0  0  0  0
    3.2309   -4.6422   34.5085 S   0  0  0  0  0  0  0  0  0  0  0  0
    3.5127   -3.3350   35.0626 O   0  0  0  0  0  0  0  0  0  0  0  0
    3.2114   -5.8422   35.3174 O   0  0  0  0  0  0  0  0  0  0  0  0
    4.3877   -4.8854   33.4414 F   0  0  0  0  0  0  0  0  0  0  0  0
    0.5574   -4.0828   34.4118 C   0  0  0  0  0  0  0  0  0  0  0  0
   -0.6485   -3.5350   33.6215 C   0  0  0  0  0  0  0  0  0  0  0  0
   -1.1394   -4.3361   32.4861 N   0  0  0  0  0  0  0  0  0  0  0  0
   -1.0234   -5.7727   32.8054 C   0  0  0  0  0  0  0  0  0  0  0  0
   -0.3072   -4.1007   31.2849 C   0  0  0  0  0  0  0  0  0  0  0  0
   -0.7264   -3.0994   30.2111 C   0  0  0  0  0  0  0  0  0  0  0  0
    0.4640   -2.8945   29.2319 C   0  0  0  0  0  0  0  0  0  0  0  0
    1.1535   -4.1969   28.9490 C   0  0  0  0  0  0  0  0  0  0  0  0
    2.0897   -4.3833   27.9718 N   0  0  0  0  0  0  0  0  0  0  0  0
    2.3276   -5.7300   27.8515 C   0  0  0  0  0  0  0  0  0  0  0  0
    1.5786   -6.3769   28.8111 C   0  0  0  0  0  0  0  0  0  0  0  0
    0.9430   -5.4000   29.5982 C   0  0  0  0  0  0  0  0  0  0  0  0
   -0.0343   -5.4954   30.7159 C   0  0  0  0  0  0  0  0  0  0  0  0
   -0.0815   -8.1969   32.6941 H   0  0  0  0  0  0  0  0  0  0  0  0
    0.6770   -8.1289   31.2395 H   0  0  0  0  0  0  0  0  0  0  0  0
    2.3056   -6.0215   32.1069 H   0  0  0  0  0  0  0  0  0  0  0  0
    1.6220   -6.7299   33.5599 H   0  0  0  0  0  0  0  0  0  0  0  0
    1.9952   -3.7919   32.8264 H   0  0  0  0  0  0  0  0  0  0  0  0
    0.8979   -3.2679   35.0635 H   0  0  0  0  0  0  0  0  0  0  0  0
    0.2498   -4.8779   35.1017 H   0  0  0  0  0  0  0  0  0  0  0  0
   -1.4622   -3.3954   34.3388 H   0  0  0  0  0  0  0  0  0  0  0  0
   -0.4206   -2.5172   33.2764 H   0  0  0  0  0  0  0  0  0  0  0  0
   -1.0177   -6.0276   33.8708 H   0  0  0  0  0  0  0  0  0  0  0  0
   -1.8899   -6.2981   32.4138 H   0  0  0  0  0  0  0  0  0  0  0  0
    0.6417   -3.6734   31.5959 H   0  0  0  0  0  0  0  0  0  0  0  0
   -1.5999   -3.4471   29.6576 H   0  0  0  0  0  0  0  0  0  0  0  0
   -0.9946   -2.1342   30.6558 H   0  0  0  0  0  0  0  0  0  0  0  0
    0.1007   -2.4373   28.3055 H   0  0  0  0  0  0  0  0  0  0  0  0
    1.1882   -2.2036   29.6806 H   0  0  0  0  0  0  0  0  0  0  0  0
    2.4756   -3.6543   27.3826 H   0  0  0  0  0  0  0  0  0  0  0  0
    2.9764   -6.1054   27.0700 H   0  0  0  0  0  0  0  0  0  0  0  0
    1.4486   -7.4352   28.9132 H   0  0  0  0  0  0  0  0  0  0  0  0
   -0.9364   -5.9014   30.2486 H   0  0  0  0  0  0  0  0  0  0  0  0
  1  2  1  0
  2  3  1  0
  3  4  1  0
  4  5  1  0
  5  6  2  0
  5  7  2  0
  5  8  1  0
  4  9  1  0
  9 10  1  0
 10 11  1  0
 11 12  1  0
 11 13  1  0
 13 14  1  0
 14 15  1  0
 15 16  1  0
 16 17  1  0
 17 18  1  0
 18 19  2  0
 19 20  1  0
 20 21  1  0
 12  2  1  0
 21 13  1  0
 21  2  1  0
 20 16  2  0
  1 22  1  0
  1 23  1  0
  3 24  1  0
  3 25  1  0
  4 26  1  0
  9 27  1  0
  9 28  1  0
 10 29  1  0
 10 30  1  0
 12 31  1  0
 12 32  1  0
 13 33  1  0
 14 34  1  0
 14 35  1  0
 15 36  1  0
 15 37  1  0
 17 38  1  0
 18 39  1  0
 19 40  1  0
 21 41  1  0
M  END
>  <Energy>  (842) 
91.670352547391019

>  <compound_id>  (842) 
2142

>  <target_id>  (842) 
1

>  <reference_id>  (842) 
40

>  <inspiration_ids>  (842) 
[40, 41]

>  <energy_score>  (842) 
-67.16729708171499

>  <distance_score>  (842) 
1.6831513846586994

>  <path>  (842) 
/opt/xchem-fragalysis-2/maxwin/BulkDock/SCRATCH/505732/C2142-P40/C2142-P40.minimised.mol

>  <scratch_subdir>  (842) 
/opt/xchem-fragalysis-2/maxwin/BulkDock/SCRATCH/505732/C2142-P40

>  <fragmenstein_runtime>  (842) 
3.573978900909424

>  <fragmenstein_outcome>  (842) 
too moved

>  <fragmenstein_mode>  (842) 
expansion

>  <fragmenstein_error>  (842) 


$$$$
C2142-P41
     RDKit          3D

 41 44  0  0  0  0  0  0  0  0999 V2000
    0.0313   -7.7349   31.2366 N   0  0  0  0  0  0  0  0  0  0  0  0
    0.2941   -6.4008   31.7875 C   0  0  0  0  0  0  0  0  0  0  0  0
    1.4175   -6.3844   32.8530 C   0  0  0  0  0  0  0  0  0  0  0  0
    1.5327   -5.3576   34.0249 C   0  0  0  0  0  0  0  0  0  0  0  0
    2.9852   -4.3281   33.8803 S   0  0  0  0  0  0  0  0  0  0  0  0
    2.8466   -3.1206   34.6642 O   0  0  0  0  0  0  0  0  0  0  0  0
    4.1201   -5.2129   34.0633 O   0  0  0  0  0  0  0  0  0  0  0  0
    3.0787   -3.8510   32.3678 F   0  0  0  0  0  0  0  0  0  0  0  0
    0.2953   -4.6753   34.5999 C   0  0  0  0  0  0  0  0  0  0  0  0
   -0.5639   -3.8406   33.6564 C   0  0  0  0  0  0  0  0  0  0  0  0
   -0.9572   -4.4618   32.3860 N   0  0  0  0  0  0  0  0  0  0  0  0
   -0.9977   -5.9321   32.4415 C   0  0  0  0  0  0  0  0  0  0  0  0
    0.0386   -4.1115   31.3501 C   0  0  0  0  0  0  0  0  0  0  0  0
   -0.3464   -3.0209   30.3525 C   0  0  0  0  0  0  0  0  0  0  0  0
    0.8622   -2.7065   29.4393 C   0  0  0  0  0  0  0  0  0  0  0  0
    1.6302   -3.9492   29.0992 C   0  0  0  0  0  0  0  0  0  0  0  0
    2.6008   -4.0048   28.1407 N   0  0  0  0  0  0  0  0  0  0  0  0
    2.9946   -5.3084   27.9904 C   0  0  0  0  0  0  0  0  0  0  0  0
    2.2995   -6.0677   28.9080 C   0  0  0  0  0  0  0  0  0  0  0  0
    1.4596   -5.2089   29.6519 C   0  0  0  0  0  0  0  0  0  0  0  0
    0.3425   -5.4177   30.6208 C   0  0  0  0  0  0  0  0  0  0  0  0
   -0.2934   -8.3745   31.9607 H   0  0  0  0  0  0  0  0  0  0  0  0
    0.8631   -8.1393   30.8190 H   0  0  0  0  0  0  0  0  0  0  0  0
    2.3773   -6.4487   32.3368 H   0  0  0  0  0  0  0  0  0  0  0  0
    1.2890   -7.3288   33.3964 H   0  0  0  0  0  0  0  0  0  0  0  0
    1.8613   -5.9838   34.8739 H   0  0  0  0  0  0  0  0  0  0  0  0
    0.5878   -4.0318   35.4398 H   0  0  0  0  0  0  0  0  0  0  0  0
   -0.3356   -5.4438   35.0663 H   0  0  0  0  0  0  0  0  0  0  0  0
   -1.4701   -3.5679   34.2010 H   0  0  0  0  0  0  0  0  0  0  0  0
   -0.0788   -2.8700   33.4825 H   0  0  0  0  0  0  0  0  0  0  0  0
   -1.2181   -6.3741   33.4183 H   0  0  0  0  0  0  0  0  0  0  0  0
   -1.7991   -6.2833   31.7953 H   0  0  0  0  0  0  0  0  0  0  0  0
    0.9580   -3.7655   31.8314 H   0  0  0  0  0  0  0  0  0  0  0  0
   -1.1954   -3.3464   29.7390 H   0  0  0  0  0  0  0  0  0  0  0  0
   -0.6587   -2.1055   30.8681 H   0  0  0  0  0  0  0  0  0  0  0  0
    0.5151   -2.2038   28.5297 H   0  0  0  0  0  0  0  0  0  0  0  0
    1.5359   -2.0157   29.9613 H   0  0  0  0  0  0  0  0  0  0  0  0
    2.9277   -3.2170   27.5933 H   0  0  0  0  0  0  0  0  0  0  0  0
    3.7133   -5.5808   27.2284 H   0  0  0  0  0  0  0  0  0  0  0  0
    2.3192   -7.1392   28.9318 H   0  0  0  0  0  0  0  0  0  0  0  0
   -0.5155   -5.6448   29.9690 H   0  0  0  0  0  0  0  0  0  0  0  0
  1  2  1  0
  2  3  1  0
  3  4  1  0
  4  5  1  0
  5  6  2  0
  5  7  2  0
  5  8  1  0
  4  9  1  0
  9 10  1  0
 10 11  1  0
 11 12  1  0
 11 13  1  0
 13 14  1  0
 14 15  1  0
 15 16  1  0
 16 17  1  0
 17 18  1  0
 18 19  2  0
 19 20  1  0
 20 21  1  0
 12  2  1  0
 21 13  1  0
 21  2  1  0
 20 16  2  0
  1 22  1  0
  1 23  1  0
  3 24  1  0
  3 25  1  0
  4 26  1  0
  9 27  1  0
  9 28  1  0
 10 29  1  0
 10 30  1  0
 12 31  1  0
 12 32  1  0
 13 33  1  0
 14 34  1  0
 14 35  1  0
 15 36  1  0
 15 37  1  0
 17 38  1  0
 18 39  1  0
 19 40  1  0
 21 41  1  0
M  END
>  <Energy>  (843) 
96.494164680577143

>  <compound_id>  (843) 
2142

>  <target_id>  (843) 
1

>  <reference_id>  (843) 
41

>  <inspiration_ids>  (843) 
[40, 41]

>  <energy_score>  (843) 
-62.34348494853043

>  <distance_score>  (843) 
1.6785536213965906

>  <path>  (843) 
/opt/xchem-fragalysis-2/maxwin/BulkDock/SCRATCH/505732/C2142-P41/C2142-P41.minimised.mol

>  <scratch_subdir>  (843) 
/opt/xchem-fragalysis-2/maxwin/BulkDock/SCRATCH/505732/C2142-P41

>  <fragmenstein_runtime>  (843) 
3.1279335021972656

>  <fragmenstein_outcome>  (843) 
too moved

>  <fragmenstein_mode>  (843) 
expansion

>  <fragmenstein_error>  (843) 


$$$$
C2145-P40
     RDKit          3D

 50 53  0  0  0  0  0  0  0  0999 V2000
   -1.0608   -5.3013   35.3752 N   0  0  0  0  0  0  0  0  0  0  0  0
   -0.3974   -6.4204   34.7611 C   0  0  0  0  0  0  0  0  0  0  0  0
    1.0895   -6.4549   35.0698 C   0  0  0  0  0  0  0  0  0  0  0  0
    1.8108   -5.4631   34.1857 C   0  0  0  0  0  0  0  0  0  0  0  0
    3.2075   -5.5803   34.3642 O   0  0  0  0  0  0  0  0  0  0  0  0
    1.5156   -5.7961   32.8180 N   0  0  0  0  0  0  0  0  0  0  0  0
    0.1157   -5.6393   32.4429 C   0  0  0  0  0  0  0  0  0  0  0  0
   -0.0345   -6.2620   31.0019 C   0  0  0  0  0  0  0  0  0  0  0  0
    0.5697   -5.3746   29.9651 C   0  0  0  0  0  0  0  0  0  0  0  0
    1.3007   -5.7103   28.8022 C   0  0  0  0  0  0  0  0  0  0  0  0
    1.6793   -4.5246   28.2168 C   0  0  0  0  0  0  0  0  0  0  0  0
    1.1702   -3.4844   28.9656 N   0  0  0  0  0  0  0  0  0  0  0  0
    0.5966   -3.9930   30.1048 C   0  0  0  0  0  0  0  0  0  0  0  0
    0.2669   -3.2488   31.3755 C   0  0  0  0  0  0  0  0  0  0  0  0
   -0.3931   -1.9319   31.2378 N   0  0  0  0  0  0  0  0  0  0  0  0
   -2.0322   -1.6688   31.0103 S   0  0  0  0  0  0  0  0  0  0  0  0
   -2.5266   -2.8770   30.4083 O   0  0  0  0  0  0  0  0  0  0  0  0
   -2.1325   -0.3719   30.3855 O   0  0  0  0  0  0  0  0  0  0  0  0
   -2.8415   -1.5185   32.5632 C   0  0  0  0  0  0  0  0  0  0  0  0
   -2.1689   -0.9842   33.6491 C   0  0  0  0  0  0  0  0  0  0  0  0
   -2.8499   -0.9007   34.8438 C   0  0  0  0  0  0  0  0  0  0  0  0
   -4.1775   -1.3176   34.9018 C   0  0  0  0  0  0  0  0  0  0  0  0
   -4.7806   -1.2966   36.1063 O   0  0  0  0  0  0  0  0  0  0  0  0
   -4.8854   -1.8002   33.8229 C   0  0  0  0  0  0  0  0  0  0  0  0
   -4.1820   -1.9423   32.6509 C   0  0  0  0  0  0  0  0  0  0  0  0
   -0.4147   -4.1698   32.4004 C   0  0  0  0  0  0  0  0  0  0  0  0
   -0.7081   -6.4573   33.3469 N   0  0  0  0  0  0  0  0  0  0  0  0
   -1.9140   -5.0973   34.8476 H   0  0  0  0  0  0  0  0  0  0  0  0
   -0.5193   -4.4479   35.3122 H   0  0  0  0  0  0  0  0  0  0  0  0
   -0.8479   -7.3118   35.2140 H   0  0  0  0  0  0  0  0  0  0  0  0
    1.4848   -7.4668   34.9012 H   0  0  0  0  0  0  0  0  0  0  0  0
    1.2873   -6.2422   36.1283 H   0  0  0  0  0  0  0  0  0  0  0  0
    1.5467   -4.4273   34.4213 H   0  0  0  0  0  0  0  0  0  0  0  0
    3.3925   -5.4120   35.3039 H   0  0  0  0  0  0  0  0  0  0  0  0
    2.1181   -5.2371   32.2173 H   0  0  0  0  0  0  0  0  0  0  0  0
   -1.0962   -6.3974   30.7662 H   0  0  0  0  0  0  0  0  0  0  0  0
    0.4088   -7.2636   30.9572 H   0  0  0  0  0  0  0  0  0  0  0  0
    1.5454   -6.6971   28.4384 H   0  0  0  0  0  0  0  0  0  0  0  0
    2.2708   -4.3170   27.3363 H   0  0  0  0  0  0  0  0  0  0  0  0
    1.2892   -2.5016   28.7492 H   0  0  0  0  0  0  0  0  0  0  0  0
    1.2490   -3.0030   31.8090 H   0  0  0  0  0  0  0  0  0  0  0  0
    0.1521   -1.2044   30.7767 H   0  0  0  0  0  0  0  0  0  0  0  0
   -1.1379   -0.6541   33.5770 H   0  0  0  0  0  0  0  0  0  0  0  0
   -2.3594   -0.5278   35.7388 H   0  0  0  0  0  0  0  0  0  0  0  0
   -5.7391   -1.2185   35.9694 H   0  0  0  0  0  0  0  0  0  0  0  0
   -5.9113   -2.1386   33.8971 H   0  0  0  0  0  0  0  0  0  0  0  0
   -4.6660   -2.4188   31.8043 H   0  0  0  0  0  0  0  0  0  0  0  0
   -1.4838   -4.2226   32.1890 H   0  0  0  0  0  0  0  0  0  0  0  0
   -0.3404   -3.6837   33.3778 H   0  0  0  0  0  0  0  0  0  0  0  0
   -0.5683   -7.4294   33.0666 H   0  0  0  0  0  0  0  0  0  0  0  0
  1  2  1  0
  2  3  1  0
  3  4  1  0
  4  5  1  0
  4  6  1  0
  6  7  1  0
  7  8  1  0
  8  9  1  0
  9 10  1  0
 10 11  2  0
 11 12  1  0
 12 13  1  0
 13 14  1  0
 14 15  1  0
 15 16  1  0
 16 17  2  0
 16 18  2  0
 16 19  1  0
 19 20  2  0
 20 21  1  0
 21 22  2  0
 22 23  1  0
 22 24  1  0
 24 25  2  0
 14 26  1  0
  7 27  1  0
 27  2  1  0
 26  7  1  0
 13  9  2  0
 25 19  1  0
  1 28  1  0
  1 29  1  0
  2 30  1  0
  3 31  1  0
  3 32  1  0
  4 33  1  0
  5 34  1  0
  6 35  1  0
  8 36  1  0
  8 37  1  0
 10 38  1  0
 11 39  1  0
 12 40  1  0
 14 41  1  0
 15 42  1  0
 20 43  1  0
 21 44  1  0
 23 45  1  0
 24 46  1  0
 25 47  1  0
 26 48  1  0
 26 49  1  0
 27 50  1  0
M  END
>  <Energy>  (844) 
-183.15483906908648

>  <compound_id>  (844) 
2145

>  <target_id>  (844) 
1

>  <reference_id>  (844) 
40

>  <inspiration_ids>  (844) 
[40, 59]

>  <energy_score>  (844) 
-47.92767697396944

>  <distance_score>  (844) 
2.4854646983504103

>  <path>  (844) 
/opt/xchem-fragalysis-2/maxwin/BulkDock/SCRATCH/505732/C2145-P40/C2145-P40.minimised.mol

>  <scratch_subdir>  (844) 
/opt/xchem-fragalysis-2/maxwin/BulkDock/SCRATCH/505732/C2145-P40

>  <fragmenstein_runtime>  (844) 
5.247212648391724

>  <fragmenstein_outcome>  (844) 
too moved

>  <fragmenstein_mode>  (844) 
expansion

>  <fragmenstein_error>  (844) 


$$$$
C2145-P59
     RDKit          3D

 50 53  0  0  0  0  0  0  0  0999 V2000
   -1.6354   -7.3705   34.8425 N   0  0  0  0  0  0  0  0  0  0  0  0
   -0.4744   -6.7129   34.2740 C   0  0  0  0  0  0  0  0  0  0  0  0
   -0.0812   -5.4557   35.0322 C   0  0  0  0  0  0  0  0  0  0  0  0
    1.1206   -4.8376   34.3240 C   0  0  0  0  0  0  0  0  0  0  0  0
    2.2903   -5.1150   35.0629 O   0  0  0  0  0  0  0  0  0  0  0  0
    1.3479   -5.3893   33.0026 N   0  0  0  0  0  0  0  0  0  0  0  0
    0.1178   -5.5070   32.2132 C   0  0  0  0  0  0  0  0  0  0  0  0
    0.4765   -6.1619   30.8339 C   0  0  0  0  0  0  0  0  0  0  0  0
    1.1300   -5.1887   29.9123 C   0  0  0  0  0  0  0  0  0  0  0  0
    2.0666   -5.4125   28.8735 C   0  0  0  0  0  0  0  0  0  0  0  0
    2.2983   -4.1955   28.2755 C   0  0  0  0  0  0  0  0  0  0  0  0
    1.5845   -3.2338   28.9557 N   0  0  0  0  0  0  0  0  0  0  0  0
    0.9188   -3.8212   30.0036 C   0  0  0  0  0  0  0  0  0  0  0  0
    0.2321   -3.1066   31.1485 C   0  0  0  0  0  0  0  0  0  0  0  0
   -0.6561   -2.0262   30.6819 N   0  0  0  0  0  0  0  0  0  0  0  0
   -0.8711   -0.6030   31.6007 S   0  0  0  0  0  0  0  0  0  0  0  0
   -1.1083    0.4395   30.6333 O   0  0  0  0  0  0  0  0  0  0  0  0
    0.2129   -0.5334   32.5549 O   0  0  0  0  0  0  0  0  0  0  0  0
   -2.3607   -0.8197   32.4963 C   0  0  0  0  0  0  0  0  0  0  0  0
   -3.2659   -1.7161   31.9683 C   0  0  0  0  0  0  0  0  0  0  0  0
   -4.3172   -2.0983   32.7435 C   0  0  0  0  0  0  0  0  0  0  0  0
   -4.4151   -1.5932   34.0243 C   0  0  0  0  0  0  0  0  0  0  0  0
   -5.1396   -2.3174   34.9013 O   0  0  0  0  0  0  0  0  0  0  0  0
   -3.6250   -0.5833   34.5243 C   0  0  0  0  0  0  0  0  0  0  0  0
   -2.5510   -0.2036   33.7444 C   0  0  0  0  0  0  0  0  0  0  0  0
   -0.5934   -4.1369   31.9520 C   0  0  0  0  0  0  0  0  0  0  0  0
   -0.8153   -6.4099   32.9056 N   0  0  0  0  0  0  0  0  0  0  0  0
   -1.6353   -8.3480   34.5253 H   0  0  0  0  0  0  0  0  0  0  0  0
   -1.4825   -7.4499   35.8491 H   0  0  0  0  0  0  0  0  0  0  0  0
    0.3581   -7.4292   34.3103 H   0  0  0  0  0  0  0  0  0  0  0  0
    0.1508   -5.6926   36.0777 H   0  0  0  0  0  0  0  0  0  0  0  0
   -0.9169   -4.7448   35.0344 H   0  0  0  0  0  0  0  0  0  0  0  0
    1.0140   -3.7478   34.2945 H   0  0  0  0  0  0  0  0  0  0  0  0
    2.7242   -5.8200   34.5572 H   0  0  0  0  0  0  0  0  0  0  0  0
    2.0070   -4.7790   32.5172 H   0  0  0  0  0  0  0  0  0  0  0  0
   -0.4417   -6.5146   30.3441 H   0  0  0  0  0  0  0  0  0  0  0  0
    1.1085   -7.0442   30.9778 H   0  0  0  0  0  0  0  0  0  0  0  0
    2.5041   -6.3519   28.5669 H   0  0  0  0  0  0  0  0  0  0  0  0
    2.9321   -3.9123   27.4456 H   0  0  0  0  0  0  0  0  0  0  0  0
    1.6131   -2.2389   28.7594 H   0  0  0  0  0  0  0  0  0  0  0  0
    1.0282   -2.7000   31.7816 H   0  0  0  0  0  0  0  0  0  0  0  0
   -0.7211   -1.8547   29.6768 H   0  0  0  0  0  0  0  0  0  0  0  0
   -3.1168   -2.1674   30.9940 H   0  0  0  0  0  0  0  0  0  0  0  0
   -4.9840   -2.8692   32.3928 H   0  0  0  0  0  0  0  0  0  0  0  0
   -4.5968   -3.1333   34.9692 H   0  0  0  0  0  0  0  0  0  0  0  0
   -3.7425   -0.2191   35.5392 H   0  0  0  0  0  0  0  0  0  0  0  0
   -1.8144    0.4985   34.1295 H   0  0  0  0  0  0  0  0  0  0  0  0
   -1.5147   -4.3351   31.3957 H   0  0  0  0  0  0  0  0  0  0  0  0
   -0.9221   -3.6744   32.8907 H   0  0  0  0  0  0  0  0  0  0  0  0
   -0.9205   -7.2918   32.4169 H   0  0  0  0  0  0  0  0  0  0  0  0
  1  2  1  0
  2  3  1  0
  3  4  1  0
  4  5  1  0
  4  6  1  0
  6  7  1  0
  7  8  1  0
  8  9  1  0
  9 10  1  0
 10 11  2  0
 11 12  1  0
 12 13  1  0
 13 14  1  0
 14 15  1  0
 15 16  1  0
 16 17  2  0
 16 18  2  0
 16 19  1  0
 19 20  2  0
 20 21  1  0
 21 22  2  0
 22 23  1  0
 22 24  1  0
 24 25  2  0
 14 26  1  0
  7 27  1  0
 27  2  1  0
 26  7  1  0
 13  9  2  0
 25 19  1  0
  1 28  1  0
  1 29  1  0
  2 30  1  0
  3 31  1  0
  3 32  1  0
  4 33  1  0
  5 34  1  0
  6 35  1  0
  8 36  1  0
  8 37  1  0
 10 38  1  0
 11 39  1  0
 12 40  1  0
 14 41  1  0
 15 42  1  0
 20 43  1  0
 21 44  1  0
 23 45  1  0
 24 46  1  0
 25 47  1  0
 26 48  1  0
 26 49  1  0
 27 50  1  0
M  END
>  <Energy>  (845) 
-186.16785561738368

>  <compound_id>  (845) 
2145

>  <target_id>  (845) 
1

>  <reference_id>  (845) 
59

>  <inspiration_ids>  (845) 
[40, 59]

>  <energy_score>  (845) 
-50.940693522265086

>  <distance_score>  (845) 
2.5640048795714407

>  <path>  (845) 
/opt/xchem-fragalysis-2/maxwin/BulkDock/SCRATCH/505732/C2145-P59/C2145-P59.minimised.mol

>  <scratch_subdir>  (845) 
/opt/xchem-fragalysis-2/maxwin/BulkDock/SCRATCH/505732/C2145-P59

>  <fragmenstein_runtime>  (845) 
6.933409690856934

>  <fragmenstein_outcome>  (845) 
too moved

>  <fragmenstein_mode>  (845) 
expansion

>  <fragmenstein_error>  (845) 


$$$$
C2146-P40
     RDKit          3D

 60 63  0  0  0  0  0  0  0  0999 V2000
   -1.9757    3.4197   24.4058 C   0  0  0  0  0  0  0  0  0  0  0  0
   -0.9627    3.2027   25.5437 C   0  0  0  0  0  0  0  0  0  0  0  0
   -0.7956    4.5134   26.3090 C   0  0  0  0  0  0  0  0  0  0  0  0
   -1.2352    4.4026   27.7445 C   0  0  0  0  0  0  0  0  0  0  0  0
   -0.6551    5.4641   28.4733 O   0  0  0  0  0  0  0  0  0  0  0  0
   -0.9574    3.1638   28.4360 N   0  0  0  0  0  0  0  0  0  0  0  0
   -0.3156    2.0942   27.6835 C   0  0  0  0  0  0  0  0  0  0  0  0
    1.1954    2.4624   27.3640 C   0  0  0  0  0  0  0  0  0  0  0  0
    2.2612    1.8556   28.2647 C   0  0  0  0  0  0  0  0  0  0  0  0
    2.2012    0.3289   28.2731 C   0  0  0  0  0  0  0  0  0  0  0  0
    0.7946   -0.2244   28.0173 C   0  0  0  0  0  0  0  0  0  0  0  0
    0.6235   -1.6319   28.4516 N   0  0  0  0  0  0  0  0  0  0  0  0
    1.9081   -2.7017   28.6200 S   0  0  0  0  0  0  0  0  0  0  0  0
    2.4487   -2.5781   29.9566 O   0  0  0  0  0  0  0  0  0  0  0  0
    2.7273   -2.7279   27.4313 O   0  0  0  0  0  0  0  0  0  0  0  0
    1.2509   -4.3096   28.7085 C   0  0  0  0  0  0  0  0  0  0  0  0
    1.8761   -5.5220   28.3297 C   0  0  0  0  0  0  0  0  0  0  0  0
    1.1492   -6.4818   29.0006 C   0  0  0  0  0  0  0  0  0  0  0  0
    0.2906   -5.7878   29.7972 N   0  0  0  0  0  0  0  0  0  0  0  0
   -0.3418   -6.2294   31.0032 C   0  0  0  0  0  0  0  0  0  0  0  0
    0.1317   -4.5315   29.4127 N   0  0  0  0  0  0  0  0  0  0  0  0
   -0.2587    0.7583   28.6223 C   0  0  0  0  0  0  0  0  0  0  0  0
    0.0557    1.0148   30.1734 C   0  0  0  0  0  0  0  0  0  0  0  0
   -0.9572   -0.0512   30.5632 C   0  0  0  0  0  0  0  0  0  0  0  0
   -1.5920    0.1016   29.1847 C   0  0  0  0  0  0  0  0  0  0  0  0
   -1.0739    1.9766   26.3954 N   0  0  0  0  0  0  0  0  0  0  0  0
   -2.4123    1.4399   26.4650 C   0  0  0  0  0  0  0  0  0  0  0  0
   -2.2673    0.0146   26.4687 N   0  0  0  0  0  0  0  0  0  0  0  0
   -2.0283    2.5471   23.7510 H   0  0  0  0  0  0  0  0  0  0  0  0
   -2.9759    3.6567   24.7839 H   0  0  0  0  0  0  0  0  0  0  0  0
   -1.6624    4.2583   23.7722 H   0  0  0  0  0  0  0  0  0  0  0  0
   -0.0207    3.0661   24.9946 H   0  0  0  0  0  0  0  0  0  0  0  0
    0.2466    4.8513   26.2476 H   0  0  0  0  0  0  0  0  0  0  0  0
   -1.3560    5.3326   25.8379 H   0  0  0  0  0  0  0  0  0  0  0  0
   -2.3189    4.5547   27.7701 H   0  0  0  0  0  0  0  0  0  0  0  0
   -1.0000    5.3359   29.3815 H   0  0  0  0  0  0  0  0  0  0  0  0
   -1.8782    2.8040   28.6563 H   0  0  0  0  0  0  0  0  0  0  0  0
    1.4458    2.1486   26.3444 H   0  0  0  0  0  0  0  0  0  0  0  0
    1.3597    3.5432   27.3856 H   0  0  0  0  0  0  0  0  0  0  0  0
    3.2552    2.1697   27.9226 H   0  0  0  0  0  0  0  0  0  0  0  0
    2.1637    2.2613   29.2771 H   0  0  0  0  0  0  0  0  0  0  0  0
    2.8728   -0.0502   27.4921 H   0  0  0  0  0  0  0  0  0  0  0  0
    2.6241   -0.0223   29.2206 H   0  0  0  0  0  0  0  0  0  0  0  0
    0.6481   -0.2440   26.9390 H   0  0  0  0  0  0  0  0  0  0  0  0
   -0.1994   -2.0810   28.0364 H   0  0  0  0  0  0  0  0  0  0  0  0
    2.7743   -5.6495   27.7399 H   0  0  0  0  0  0  0  0  0  0  0  0
    1.2202   -7.5487   29.0709 H   0  0  0  0  0  0  0  0  0  0  0  0
    0.4166   -6.6638   31.6593 H   0  0  0  0  0  0  0  0  0  0  0  0
   -0.8203   -5.3875   31.5106 H   0  0  0  0  0  0  0  0  0  0  0  0
   -1.0886   -6.9843   30.7452 H   0  0  0  0  0  0  0  0  0  0  0  0
   -0.1798    2.0114   30.5549 H   0  0  0  0  0  0  0  0  0  0  0  0
    1.0534    0.7812   30.5558 H   0  0  0  0  0  0  0  0  0  0  0  0
   -0.5178   -1.0367   30.7506 H   0  0  0  0  0  0  0  0  0  0  0  0
   -1.6017    0.1923   31.4116 H   0  0  0  0  0  0  0  0  0  0  0  0
   -1.9156   -0.8543   28.7658 H   0  0  0  0  0  0  0  0  0  0  0  0
   -2.4540    0.7664   29.2135 H   0  0  0  0  0  0  0  0  0  0  0  0
   -3.0215    1.6711   25.5952 H   0  0  0  0  0  0  0  0  0  0  0  0
   -2.9998    1.8015   27.3103 H   0  0  0  0  0  0  0  0  0  0  0  0
   -1.3154   -0.2167   26.1903 H   0  0  0  0  0  0  0  0  0  0  0  0
   -2.7831   -0.4153   25.7037 H   0  0  0  0  0  0  0  0  0  0  0  0
  1  2  1  0
  2  3  1  0
  3  4  1  0
  4  5  1  0
  4  6  1  0
  6  7  1  0
  7  8  1  0
  8  9  1  0
  9 10  1  0
 10 11  1  0
 11 12  1  0
 12 13  1  0
 13 14  2  0
 13 15  2  0
 13 16  1  0
 16 17  1  0
 17 18  2  0
 18 19  1  0
 19 20  1  0
 19 21  1  0
 11 22  1  0
 22 23  1  0
 23 24  1  0
 24 25  1  0
  7 26  1  0
 26 27  1  0
 27 28  1  0
 26  2  1  0
 22  7  1  0
 21 16  2  0
 25 22  1  0
  1 29  1  0
  1 30  1  0
  1 31  1  0
  2 32  1  0
  3 33  1  0
  3 34  1  0
  4 35  1  0
  5 36  1  0
  6 37  1  0
  8 38  1  0
  8 39  1  0
  9 40  1  0
  9 41  1  0
 10 42  1  0
 10 43  1  0
 11 44  1  0
 12 45  1  0
 17 46  1  0
 18 47  1  0
 20 48  1  0
 20 49  1  0
 20 50  1  0
 23 51  1  0
 23 52  1  0
 24 53  1  0
 24 54  1  0
 25 55  1  0
 25 56  1  0
 27 57  1  0
 27 58  1  0
 28 59  1  0
 28 60  1  0
M  END
>  <Energy>  (846) 
-32.284036337013184

>  <compound_id>  (846) 
2146

>  <target_id>  (846) 
1

>  <reference_id>  (846) 
40

>  <inspiration_ids>  (846) 
[40, 70]

>  <energy_score>  (846) 
-62.95105691196241

>  <distance_score>  (846) 
1.8895679794915075

>  <path>  (846) 
/opt/xchem-fragalysis-2/maxwin/BulkDock/SCRATCH/505732/C2146-P40/C2146-P40.minimised.mol

>  <scratch_subdir>  (846) 
/opt/xchem-fragalysis-2/maxwin/BulkDock/SCRATCH/505732/C2146-P40

>  <fragmenstein_runtime>  (846) 
7.46988582611084

>  <fragmenstein_outcome>  (846) 
too moved

>  <fragmenstein_mode>  (846) 
expansion

>  <fragmenstein_error>  (846) 


$$$$
C2146-P70
     RDKit          3D

 60 63  0  0  0  0  0  0  0  0999 V2000
   -0.0546    4.3120   24.3574 C   0  0  0  0  0  0  0  0  0  0  0  0
   -0.1478    4.0054   25.8661 C   0  0  0  0  0  0  0  0  0  0  0  0
   -1.1344    4.9752   26.4824 C   0  0  0  0  0  0  0  0  0  0  0  0
   -1.1433    4.8183   27.9788 C   0  0  0  0  0  0  0  0  0  0  0  0
   -0.1365    5.5930   28.5892 O   0  0  0  0  0  0  0  0  0  0  0  0
   -1.0862    3.4579   28.4734 N   0  0  0  0  0  0  0  0  0  0  0  0
   -0.1297    2.5396   27.8424 C   0  0  0  0  0  0  0  0  0  0  0  0
    1.3445    2.9721   28.1834 C   0  0  0  0  0  0  0  0  0  0  0  0
    2.3607    2.0406   27.5286 C   0  0  0  0  0  0  0  0  0  0  0  0
    2.2592    0.6484   28.1235 C   0  0  0  0  0  0  0  0  0  0  0  0
    0.8502    0.0459   28.0898 C   0  0  0  0  0  0  0  0  0  0  0  0
    0.9297   -1.1950   28.9665 N   0  0  0  0  0  0  0  0  0  0  0  0
    0.5964   -2.6507   28.1954 S   0  0  0  0  0  0  0  0  0  0  0  0
    1.7555   -3.0080   27.4248 O   0  0  0  0  0  0  0  0  0  0  0  0
   -0.7676   -2.5743   27.7441 O   0  0  0  0  0  0  0  0  0  0  0  0
    0.5704   -4.0139   29.2404 C   0  0  0  0  0  0  0  0  0  0  0  0
    0.0378   -5.2799   28.8978 C   0  0  0  0  0  0  0  0  0  0  0  0
    0.2619   -6.0495   30.0108 C   0  0  0  0  0  0  0  0  0  0  0  0
    0.9207   -5.2436   30.8871 N   0  0  0  0  0  0  0  0  0  0  0  0
    1.3078   -5.5494   32.2283 C   0  0  0  0  0  0  0  0  0  0  0  0
    1.1722   -4.0153   30.4323 N   0  0  0  0  0  0  0  0  0  0  0  0
   -0.2219    1.0812   28.5788 C   0  0  0  0  0  0  0  0  0  0  0  0
   -0.1413    1.1296   30.1610 C   0  0  0  0  0  0  0  0  0  0  0  0
   -1.3437    0.1845   30.2471 C   0  0  0  0  0  0  0  0  0  0  0  0
   -1.6516    0.4830   28.7759 C   0  0  0  0  0  0  0  0  0  0  0  0
   -0.3955    2.5943   26.3501 N   0  0  0  0  0  0  0  0  0  0  0  0
   -1.7092    2.0830   26.0055 C   0  0  0  0  0  0  0  0  0  0  0  0
   -1.8513    2.1526   24.5663 N   0  0  0  0  0  0  0  0  0  0  0  0
   -1.0187    4.4122   23.8536 H   0  0  0  0  0  0  0  0  0  0  0  0
    0.4441    5.2810   24.2195 H   0  0  0  0  0  0  0  0  0  0  0  0
    0.5736    3.5799   23.8388 H   0  0  0  0  0  0  0  0  0  0  0  0
    0.8590    4.2877   26.1775 H   0  0  0  0  0  0  0  0  0  0  0  0
   -0.8625    6.0052   26.2180 H   0  0  0  0  0  0  0  0  0  0  0  0
   -2.1386    4.7998   26.0775 H   0  0  0  0  0  0  0  0  0  0  0  0
   -2.0966    5.2587   28.2817 H   0  0  0  0  0  0  0  0  0  0  0  0
   -0.4153    5.5889   29.5266 H   0  0  0  0  0  0  0  0  0  0  0  0
   -2.0243    3.0883   28.3625 H   0  0  0  0  0  0  0  0  0  0  0  0
    1.5024    2.9607   29.2702 H   0  0  0  0  0  0  0  0  0  0  0  0
    1.5891    3.9985   27.9036 H   0  0  0  0  0  0  0  0  0  0  0  0
    3.3714    2.4290   27.7016 H   0  0  0  0  0  0  0  0  0  0  0  0
    2.2235    2.0034   26.4426 H   0  0  0  0  0  0  0  0  0  0  0  0
    2.9547   -0.0206   27.6005 H   0  0  0  0  0  0  0  0  0  0  0  0
    2.6240    0.7019   29.1585 H   0  0  0  0  0  0  0  0  0  0  0  0
    0.5980   -0.2391   27.0697 H   0  0  0  0  0  0  0  0  0  0  0  0
    1.8122   -1.2999   29.4696 H   0  0  0  0  0  0  0  0  0  0  0  0
   -0.4546   -5.5590   27.9775 H   0  0  0  0  0  0  0  0  0  0  0  0
    0.0245   -7.0776   30.2472 H   0  0  0  0  0  0  0  0  0  0  0  0
    2.3633   -5.8308   32.2290 H   0  0  0  0  0  0  0  0  0  0  0  0
    1.1561   -4.6699   32.8607 H   0  0  0  0  0  0  0  0  0  0  0  0
    0.6871   -6.3643   32.6078 H   0  0  0  0  0  0  0  0  0  0  0  0
   -0.2770    2.1094   30.6190 H   0  0  0  0  0  0  0  0  0  0  0  0
    0.7661    0.7356   30.6332 H   0  0  0  0  0  0  0  0  0  0  0  0
   -1.0918   -0.8614   30.4489 H   0  0  0  0  0  0  0  0  0  0  0  0
   -2.1194    0.4673   30.9609 H   0  0  0  0  0  0  0  0  0  0  0  0
   -2.4600    1.2051   28.6718 H   0  0  0  0  0  0  0  0  0  0  0  0
   -1.9099   -0.3843   28.1658 H   0  0  0  0  0  0  0  0  0  0  0  0
   -2.5574    2.5943   26.4696 H   0  0  0  0  0  0  0  0  0  0  0  0
   -1.7853    1.0281   26.2743 H   0  0  0  0  0  0  0  0  0  0  0  0
   -2.3756    3.0021   24.3429 H   0  0  0  0  0  0  0  0  0  0  0  0
   -0.9102    2.2756   24.1979 H   0  0  0  0  0  0  0  0  0  0  0  0
  1  2  1  0
  2  3  1  0
  3  4  1  0
  4  5  1  0
  4  6  1  0
  6  7  1  0
  7  8  1  0
  8  9  1  0
  9 10  1  0
 10 11  1  0
 11 12  1  0
 12 13  1  0
 13 14  2  0
 13 15  2  0
 13 16  1  0
 16 17  1  0
 17 18  2  0
 18 19  1  0
 19 20  1  0
 19 21  1  0
 11 22  1  0
 22 23  1  0
 23 24  1  0
 24 25  1  0
  7 26  1  0
 26 27  1  0
 27 28  1  0
 26  2  1  0
 22  7  1  0
 21 16  2  0
 25 22  1  0
  1 29  1  0
  1 30  1  0
  1 31  1  0
  2 32  1  0
  3 33  1  0
  3 34  1  0
  4 35  1  0
  5 36  1  0
  6 37  1  0
  8 38  1  0
  8 39  1  0
  9 40  1  0
  9 41  1  0
 10 42  1  0
 10 43  1  0
 11 44  1  0
 12 45  1  0
 17 46  1  0
 18 47  1  0
 20 48  1  0
 20 49  1  0
 20 50  1  0
 23 51  1  0
 23 52  1  0
 24 53  1  0
 24 54  1  0
 25 55  1  0
 25 56  1  0
 27 57  1  0
 27 58  1  0
 28 59  1  0
 28 60  1  0
M  END
>  <Energy>  (847) 
-52.095538226431053

>  <compound_id>  (847) 
2146

>  <target_id>  (847) 
1

>  <reference_id>  (847) 
70

>  <inspiration_ids>  (847) 
[40, 70]

>  <energy_score>  (847) 
-82.76255880137987

>  <distance_score>  (847) 
2.383411316396705

>  <path>  (847) 
/opt/xchem-fragalysis-2/maxwin/BulkDock/SCRATCH/505732/C2146-P70/C2146-P70.minimised.mol

>  <scratch_subdir>  (847) 
/opt/xchem-fragalysis-2/maxwin/BulkDock/SCRATCH/505732/C2146-P70

>  <fragmenstein_runtime>  (847) 
6.085069417953491

>  <fragmenstein_outcome>  (847) 
too moved

>  <fragmenstein_mode>  (847) 
expansion

>  <fragmenstein_error>  (847) 


$$$$
C2147-P40
     RDKit          3D

 42 45  0  0  0  0  0  0  0  0999 V2000
   -2.5685   -1.6763   34.5579 C   0  0  0  0  0  0  0  0  0  0  0  0
   -1.8679   -2.2887   33.3812 C   0  0  0  0  0  0  0  0  0  0  0  0
   -0.5944   -2.6326   33.5734 N   0  0  0  0  0  0  0  0  0  0  0  0
    0.0656   -3.2068   32.5829 C   0  0  0  0  0  0  0  0  0  0  0  0
    1.2470   -3.6716   33.0091 C   0  0  0  0  0  0  0  0  0  0  0  0
    1.8035   -4.6995   32.3139 C   0  0  0  0  0  0  0  0  0  0  0  0
    2.4960   -5.7083   33.0428 N   0  0  0  0  0  0  0  0  0  0  0  0
    1.9064   -6.1900   34.6065 S   0  0  0  0  0  0  0  0  0  0  0  0
    2.6310   -7.3986   34.9540 O   0  0  0  0  0  0  0  0  0  0  0  0
    1.7543   -5.0937   35.5300 O   0  0  0  0  0  0  0  0  0  0  0  0
    0.3212   -6.7945   34.2586 C   0  0  0  0  0  0  0  0  0  0  0  0
   -0.7096   -7.0191   35.1786 C   0  0  0  0  0  0  0  0  0  0  0  0
   -1.6674   -7.6536   34.4300 C   0  0  0  0  0  0  0  0  0  0  0  0
   -1.1955   -7.7217   33.1574 N   0  0  0  0  0  0  0  0  0  0  0  0
   -1.8093   -8.2930   32.0013 C   0  0  0  0  0  0  0  0  0  0  0  0
    0.0245   -7.2145   33.0102 N   0  0  0  0  0  0  0  0  0  0  0  0
    1.5798   -4.7592   30.9206 C   0  0  0  0  0  0  0  0  0  0  0  0
    2.2581   -5.3713   29.8888 N   0  0  0  0  0  0  0  0  0  0  0  0
    1.6046   -5.1917   28.7005 C   0  0  0  0  0  0  0  0  0  0  0  0
    0.4861   -4.4364   28.9673 C   0  0  0  0  0  0  0  0  0  0  0  0
    0.4706   -4.1212   30.3590 C   0  0  0  0  0  0  0  0  0  0  0  0
   -0.3942   -3.4156   31.2706 C   0  0  0  0  0  0  0  0  0  0  0  0
   -1.6725   -2.8887   31.0659 C   0  0  0  0  0  0  0  0  0  0  0  0
   -2.2513   -2.8309   29.8320 O   0  0  0  0  0  0  0  0  0  0  0  0
   -2.4611   -2.4147   32.1380 C   0  0  0  0  0  0  0  0  0  0  0  0
   -3.8575   -2.3715   31.9933 N   0  0  0  0  0  0  0  0  0  0  0  0
   -3.5927   -2.0416   34.6692 H   0  0  0  0  0  0  0  0  0  0  0  0
   -2.5972   -0.5883   34.4411 H   0  0  0  0  0  0  0  0  0  0  0  0
   -2.0346   -1.9059   35.4863 H   0  0  0  0  0  0  0  0  0  0  0  0
    1.5620   -3.4236   34.0176 H   0  0  0  0  0  0  0  0  0  0  0  0
    2.2973   -6.5761   32.5465 H   0  0  0  0  0  0  0  0  0  0  0  0
   -0.7154   -6.8132   36.2399 H   0  0  0  0  0  0  0  0  0  0  0  0
   -2.5980   -8.1197   34.7136 H   0  0  0  0  0  0  0  0  0  0  0  0
   -2.8149   -8.6243   32.2340 H   0  0  0  0  0  0  0  0  0  0  0  0
   -1.8358   -7.5273   31.2221 H   0  0  0  0  0  0  0  0  0  0  0  0
   -1.2071   -9.1392   31.6681 H   0  0  0  0  0  0  0  0  0  0  0  0
    3.1689   -5.7965   29.9875 H   0  0  0  0  0  0  0  0  0  0  0  0
    2.0114   -5.5779   27.7758 H   0  0  0  0  0  0  0  0  0  0  0  0
   -0.2233   -4.0891   28.2289 H   0  0  0  0  0  0  0  0  0  0  0  0
   -1.5777   -2.7554   29.1343 H   0  0  0  0  0  0  0  0  0  0  0  0
   -4.3073   -1.6421   32.5359 H   0  0  0  0  0  0  0  0  0  0  0  0
   -4.0689   -2.3365   31.0081 H   0  0  0  0  0  0  0  0  0  0  0  0
  1  2  1  0
  2  3  2  0
  3  4  1  0
  4  5  2  0
  5  6  1  0
  6  7  1  0
  7  8  1  0
  8  9  2  0
  8 10  2  0
  8 11  1  0
 11 12  1  0
 12 13  2  0
 13 14  1  0
 14 15  1  0
 14 16  1  0
  6 17  2  0
 17 18  1  0
 18 19  1  0
 19 20  2  0
 20 21  1  0
 21 22  2  0
 22 23  1  0
 23 24  1  0
 23 25  2  0
 25 26  1  0
 25  2  1  0
 22  4  1  0
 16 11  2  0
 21 17  1  0
  1 27  1  0
  1 28  1  0
  1 29  1  0
  5 30  1  0
  7 31  1  0
 12 32  1  0
 13 33  1  0
 15 34  1  0
 15 35  1  0
 15 36  1  0
 18 37  1  0
 19 38  1  0
 20 39  1  0
 24 40  1  0
 26 41  1  0
 26 42  1  0
M  END
>  <Energy>  (848) 
131.2156068342305

>  <compound_id>  (848) 
2147

>  <target_id>  (848) 
1

>  <reference_id>  (848) 
40

>  <inspiration_ids>  (848) 
[40, 72]

>  <energy_score>  (848) 
-38.240859647435

>  <distance_score>  (848) 
2.661935343140686

>  <path>  (848) 
/opt/xchem-fragalysis-2/maxwin/BulkDock/SCRATCH/505732/C2147-P40/C2147-P40.minimised.mol

>  <scratch_subdir>  (848) 
/opt/xchem-fragalysis-2/maxwin/BulkDock/SCRATCH/505732/C2147-P40

>  <fragmenstein_runtime>  (848) 
2.6835010051727295

>  <fragmenstein_outcome>  (848) 
too moved

>  <fragmenstein_mode>  (848) 
expansion

>  <fragmenstein_error>  (848) 


$$$$
C2147-P72
     RDKit          3D

 42 45  0  0  0  0  0  0  0  0999 V2000
   -3.3048   -1.7966   32.3088 C   0  0  0  0  0  0  0  0  0  0  0  0
   -2.1927   -2.3689   31.4821 C   0  0  0  0  0  0  0  0  0  0  0  0
   -1.6555   -3.5003   31.9795 N   0  0  0  0  0  0  0  0  0  0  0  0
   -0.5462   -3.9402   31.4007 C   0  0  0  0  0  0  0  0  0  0  0  0
    0.2587   -4.6721   32.2047 C   0  0  0  0  0  0  0  0  0  0  0  0
    1.5043   -5.1333   31.8028 C   0  0  0  0  0  0  0  0  0  0  0  0
    2.3206   -5.9524   32.6528 N   0  0  0  0  0  0  0  0  0  0  0  0
    1.9451   -6.1336   34.3330 S   0  0  0  0  0  0  0  0  0  0  0  0
    2.8757   -7.1135   34.8522 O   0  0  0  0  0  0  0  0  0  0  0  0
    1.6671   -4.8676   34.9647 O   0  0  0  0  0  0  0  0  0  0  0  0
    0.4458   -7.0102   34.2499 C   0  0  0  0  0  0  0  0  0  0  0  0
   -0.5973   -7.0886   35.1789 C   0  0  0  0  0  0  0  0  0  0  0  0
   -1.5980   -7.7242   34.4773 C   0  0  0  0  0  0  0  0  0  0  0  0
   -1.1350   -7.9097   33.2135 N   0  0  0  0  0  0  0  0  0  0  0  0
   -1.8089   -8.2941   32.0149 C   0  0  0  0  0  0  0  0  0  0  0  0
    0.1488   -7.6146   33.0825 N   0  0  0  0  0  0  0  0  0  0  0  0
    1.8357   -4.9588   30.4436 C   0  0  0  0  0  0  0  0  0  0  0  0
    2.9465   -5.3216   29.7125 N   0  0  0  0  0  0  0  0  0  0  0  0
    2.8540   -4.9141   28.4134 C   0  0  0  0  0  0  0  0  0  0  0  0
    1.7304   -4.1366   28.3438 C   0  0  0  0  0  0  0  0  0  0  0  0
    1.0410   -4.2056   29.5831 C   0  0  0  0  0  0  0  0  0  0  0  0
   -0.1144   -3.5793   30.1255 C   0  0  0  0  0  0  0  0  0  0  0  0
   -0.7974   -2.5041   29.5511 C   0  0  0  0  0  0  0  0  0  0  0  0
   -0.4656   -2.0509   28.3021 O   0  0  0  0  0  0  0  0  0  0  0  0
   -1.7176   -1.7672   30.3076 C   0  0  0  0  0  0  0  0  0  0  0  0
   -2.2028   -0.5573   29.7797 N   0  0  0  0  0  0  0  0  0  0  0  0
   -4.2470   -2.2880   32.0507 H   0  0  0  0  0  0  0  0  0  0  0  0
   -3.4122   -0.7167   32.1843 H   0  0  0  0  0  0  0  0  0  0  0  0
   -3.1102   -1.9736   33.3721 H   0  0  0  0  0  0  0  0  0  0  0  0
   -0.1089   -4.7870   33.2175 H   0  0  0  0  0  0  0  0  0  0  0  0
    2.1924   -6.9111   32.3181 H   0  0  0  0  0  0  0  0  0  0  0  0
   -0.6284   -6.7156   36.1931 H   0  0  0  0  0  0  0  0  0  0  0  0
   -2.5758   -8.0581   34.7818 H   0  0  0  0  0  0  0  0  0  0  0  0
   -2.8719   -8.3684   32.1816 H   0  0  0  0  0  0  0  0  0  0  0  0
   -1.6224   -7.5278   31.2560 H   0  0  0  0  0  0  0  0  0  0  0  0
   -1.4045   -9.2459   31.6719 H   0  0  0  0  0  0  0  0  0  0  0  0
    3.7757   -5.7217   30.1153 H   0  0  0  0  0  0  0  0  0  0  0  0
    3.6494   -5.0951   27.7030 H   0  0  0  0  0  0  0  0  0  0  0  0
    1.4377   -3.5205   27.5139 H   0  0  0  0  0  0  0  0  0  0  0  0
   -1.3163   -1.8625   27.8535 H   0  0  0  0  0  0  0  0  0  0  0  0
   -1.5204   -0.1263   29.1551 H   0  0  0  0  0  0  0  0  0  0  0  0
   -2.5181    0.1041   30.4814 H   0  0  0  0  0  0  0  0  0  0  0  0
  1  2  1  0
  2  3  2  0
  3  4  1  0
  4  5  2  0
  5  6  1  0
  6  7  1  0
  7  8  1  0
  8  9  2  0
  8 10  2  0
  8 11  1  0
 11 12  1  0
 12 13  2  0
 13 14  1  0
 14 15  1  0
 14 16  1  0
  6 17  2  0
 17 18  1  0
 18 19  1  0
 19 20  2  0
 20 21  1  0
 21 22  2  0
 22 23  1  0
 23 24  1  0
 23 25  2  0
 25 26  1  0
 25  2  1  0
 22  4  1  0
 16 11  2  0
 21 17  1  0
  1 27  1  0
  1 28  1  0
  1 29  1  0
  5 30  1  0
  7 31  1  0
 12 32  1  0
 13 33  1  0
 15 34  1  0
 15 35  1  0
 15 36  1  0
 18 37  1  0
 19 38  1  0
 20 39  1  0
 24 40  1  0
 26 41  1  0
 26 42  1  0
M  END
>  <Energy>  (849) 
123.70451103438006

>  <compound_id>  (849) 
2147

>  <target_id>  (849) 
1

>  <reference_id>  (849) 
72

>  <inspiration_ids>  (849) 
[40, 72]

>  <energy_score>  (849) 
-45.75195544728251

>  <distance_score>  (849) 
2.429031881994887

>  <path>  (849) 
/opt/xchem-fragalysis-2/maxwin/BulkDock/SCRATCH/505732/C2147-P72/C2147-P72.minimised.mol

>  <scratch_subdir>  (849) 
/opt/xchem-fragalysis-2/maxwin/BulkDock/SCRATCH/505732/C2147-P72

>  <fragmenstein_runtime>  (849) 
2.5436911582946777

>  <fragmenstein_outcome>  (849) 
too moved

>  <fragmenstein_mode>  (849) 
expansion

>  <fragmenstein_error>  (849) 


$$$$
C2149-P40
     RDKit          3D

 39 42  0  0  0  0  0  0  0  0999 V2000
   -1.3800   -8.9481   31.4486 N   0  0  0  0  0  0  0  0  0  0  0  0
   -0.8552   -7.6811   31.4662 C   0  0  0  0  0  0  0  0  0  0  0  0
   -1.0585   -6.7756   32.4386 C   0  0  0  0  0  0  0  0  0  0  0  0
   -0.5934   -5.4839   32.3777 N   0  0  0  0  0  0  0  0  0  0  0  0
    0.0571   -5.0082   31.2404 C   0  0  0  0  0  0  0  0  0  0  0  0
    0.3185   -3.7089   30.9446 C   0  0  0  0  0  0  0  0  0  0  0  0
   -0.0518   -2.7381   31.9288 N   0  0  0  0  0  0  0  0  0  0  0  0
   -1.5811   -2.0540   31.5734 S   0  0  0  0  0  0  0  0  0  0  0  0
   -1.5020   -1.3191   30.3350 O   0  0  0  0  0  0  0  0  0  0  0  0
   -2.5493   -3.1136   31.7942 O   0  0  0  0  0  0  0  0  0  0  0  0
   -1.7330   -0.8927   32.8797 C   0  0  0  0  0  0  0  0  0  0  0  0
   -2.6725   -1.0412   33.8927 C   0  0  0  0  0  0  0  0  0  0  0  0
   -2.7066   -0.0892   34.9093 C   0  0  0  0  0  0  0  0  0  0  0  0
   -1.8073    0.9703   34.8730 C   0  0  0  0  0  0  0  0  0  0  0  0
   -1.7903    1.9176   35.8910 N   0  0  0  0  0  0  0  0  0  0  0  0
   -0.8928    1.1201   33.8986 N   0  0  0  0  0  0  0  0  0  0  0  0
   -0.8810    0.1944   32.9076 C   0  0  0  0  0  0  0  0  0  0  0  0
    1.0189   -3.2743   29.7448 C   0  0  0  0  0  0  0  0  0  0  0  0
    1.5028   -4.1843   28.8912 C   0  0  0  0  0  0  0  0  0  0  0  0
    2.2676   -4.0039   27.7726 N   0  0  0  0  0  0  0  0  0  0  0  0
    2.5618   -5.2076   27.3969 C   0  0  0  0  0  0  0  0  0  0  0  0
    1.9899   -6.2837   28.2063 C   0  0  0  0  0  0  0  0  0  0  0  0
    1.2986   -5.5996   29.1197 C   0  0  0  0  0  0  0  0  0  0  0  0
    0.4520   -6.0348   30.2208 C   0  0  0  0  0  0  0  0  0  0  0  0
   -0.0276   -7.2890   30.3382 C   0  0  0  0  0  0  0  0  0  0  0  0
   -0.6579   -9.6373   31.2087 H   0  0  0  0  0  0  0  0  0  0  0  0
   -1.7878   -9.1847   32.3563 H   0  0  0  0  0  0  0  0  0  0  0  0
   -1.6493   -6.9918   33.3203 H   0  0  0  0  0  0  0  0  0  0  0  0
   -1.1631   -4.8085   32.8838 H   0  0  0  0  0  0  0  0  0  0  0  0
   -0.0683   -3.1247   32.8727 H   0  0  0  0  0  0  0  0  0  0  0  0
   -3.3665   -1.8770   33.9060 H   0  0  0  0  0  0  0  0  0  0  0  0
   -3.4161   -0.1816   35.7246 H   0  0  0  0  0  0  0  0  0  0  0  0
   -2.7019    2.3371   36.0300 H   0  0  0  0  0  0  0  0  0  0  0  0
   -1.0908    2.6121   35.6387 H   0  0  0  0  0  0  0  0  0  0  0  0
   -0.1409    0.3631   32.1290 H   0  0  0  0  0  0  0  0  0  0  0  0
    1.1783   -2.2154   29.5745 H   0  0  0  0  0  0  0  0  0  0  0  0
    3.1855   -5.4572   26.5256 H   0  0  0  0  0  0  0  0  0  0  0  0
    2.1113   -7.3222   28.0121 H   0  0  0  0  0  0  0  0  0  0  0  0
    0.1865   -8.0519   29.6014 H   0  0  0  0  0  0  0  0  0  0  0  0
  1  2  1  0
  2  3  2  0
  3  4  1  0
  4  5  1  0
  5  6  2  0
  6  7  1  0
  7  8  1  0
  8  9  2  0
  8 10  2  0
  8 11  1  0
 11 12  2  0
 12 13  1  0
 13 14  2  0
 14 15  1  0
 14 16  1  0
 16 17  2  0
  6 18  1  0
 18 19  2  0
 19 20  1  0
 20 21  2  0
 21 22  1  0
 22 23  2  0
 23 24  1  0
 24 25  2  0
 25  2  1  0
 24  5  1  0
 17 11  1  0
 23 19  1  0
  1 26  1  0
  1 27  1  0
  3 28  1  0
  4 29  1  0
  7 30  1  0
 12 31  1  0
 13 32  1  0
 15 33  1  0
 15 34  1  0
 17 35  1  0
 18 36  1  0
 21 37  1  0
 22 38  1  0
 25 39  1  0
M  END
>  <Energy>  (850) 
-42.85754684696338

>  <compound_id>  (850) 
2149

>  <target_id>  (850) 
1

>  <reference_id>  (850) 
40

>  <inspiration_ids>  (850) 
[40, 105]

>  <energy_score>  (850) 
-73.85470224744932

>  <distance_score>  (850) 
1.414156744918044

>  <path>  (850) 
/opt/xchem-fragalysis-2/maxwin/BulkDock/SCRATCH/505732/C2149-P40/C2149-P40.minimised.mol

>  <scratch_subdir>  (850) 
/opt/xchem-fragalysis-2/maxwin/BulkDock/SCRATCH/505732/C2149-P40

>  <fragmenstein_runtime>  (850) 
2.578868865966797

>  <fragmenstein_outcome>  (850) 
too moved

>  <fragmenstein_mode>  (850) 
expansion

>  <fragmenstein_error>  (850) 


$$$$
C2149-P105
     RDKit          3D

 39 42  0  0  0  0  0  0  0  0999 V2000
   -1.9580   -4.0719   31.7760 N   0  0  0  0  0  0  0  0  0  0  0  0
   -0.7843   -4.7755   31.9401 C   0  0  0  0  0  0  0  0  0  0  0  0
   -0.1269   -4.7980   33.1166 C   0  0  0  0  0  0  0  0  0  0  0  0
    1.2602   -4.9307   33.1398 N   0  0  0  0  0  0  0  0  0  0  0  0
    1.8794   -4.6245   31.9196 C   0  0  0  0  0  0  0  0  0  0  0  0
    2.7385   -3.6153   31.6143 C   0  0  0  0  0  0  0  0  0  0  0  0
    3.2224   -2.8443   32.7018 N   0  0  0  0  0  0  0  0  0  0  0  0
    2.9074   -1.1825   32.7111 S   0  0  0  0  0  0  0  0  0  0  0  0
    3.0519   -0.7805   34.0950 O   0  0  0  0  0  0  0  0  0  0  0  0
    3.6756   -0.5470   31.6643 O   0  0  0  0  0  0  0  0  0  0  0  0
    1.1981   -1.0406   32.3114 C   0  0  0  0  0  0  0  0  0  0  0  0
    0.7633   -0.7239   31.0288 C   0  0  0  0  0  0  0  0  0  0  0  0
   -0.6066   -0.5907   30.8021 C   0  0  0  0  0  0  0  0  0  0  0  0
   -1.4866   -0.7629   31.8634 C   0  0  0  0  0  0  0  0  0  0  0  0
   -2.8596   -0.7014   31.6674 N   0  0  0  0  0  0  0  0  0  0  0  0
   -1.0766   -1.0763   33.1059 N   0  0  0  0  0  0  0  0  0  0  0  0
    0.2588   -1.1786   33.3153 C   0  0  0  0  0  0  0  0  0  0  0  0
    3.1727   -3.3228   30.2388 C   0  0  0  0  0  0  0  0  0  0  0  0
    2.8591   -4.1657   29.2434 C   0  0  0  0  0  0  0  0  0  0  0  0
    3.3754   -4.2584   27.9828 N   0  0  0  0  0  0  0  0  0  0  0  0
    3.1437   -5.4928   27.6621 C   0  0  0  0  0  0  0  0  0  0  0  0
    2.4067   -6.2829   28.6566 C   0  0  0  0  0  0  0  0  0  0  0  0
    2.0803   -5.3437   29.5425 C   0  0  0  0  0  0  0  0  0  0  0  0
    1.2671   -5.2823   30.7404 C   0  0  0  0  0  0  0  0  0  0  0  0
   -0.0816   -5.2971   30.7570 C   0  0  0  0  0  0  0  0  0  0  0  0
   -1.9126   -3.4888   30.9333 H   0  0  0  0  0  0  0  0  0  0  0  0
   -2.1031   -3.4142   32.5585 H   0  0  0  0  0  0  0  0  0  0  0  0
   -0.5598   -4.4257   34.0416 H   0  0  0  0  0  0  0  0  0  0  0  0
    1.6547   -4.4590   33.9453 H   0  0  0  0  0  0  0  0  0  0  0  0
    3.1891   -3.2287   33.6410 H   0  0  0  0  0  0  0  0  0  0  0  0
    1.4658   -0.5815   30.2114 H   0  0  0  0  0  0  0  0  0  0  0  0
   -0.9811   -0.3646   29.8080 H   0  0  0  0  0  0  0  0  0  0  0  0
   -3.3071   -0.7910   32.5757 H   0  0  0  0  0  0  0  0  0  0  0  0
   -3.1462    0.1815   31.2328 H   0  0  0  0  0  0  0  0  0  0  0  0
    0.5394   -1.3858   34.3444 H   0  0  0  0  0  0  0  0  0  0  0  0
    3.8634   -2.5069   30.0565 H   0  0  0  0  0  0  0  0  0  0  0  0
    3.4420   -5.9585   26.7113 H   0  0  0  0  0  0  0  0  0  0  0  0
    2.1593   -7.3178   28.5846 H   0  0  0  0  0  0  0  0  0  0  0  0
   -0.6500   -5.5488   29.8747 H   0  0  0  0  0  0  0  0  0  0  0  0
  1  2  1  0
  2  3  2  0
  3  4  1  0
  4  5  1  0
  5  6  2  0
  6  7  1  0
  7  8  1  0
  8  9  2  0
  8 10  2  0
  8 11  1  0
 11 12  2  0
 12 13  1  0
 13 14  2  0
 14 15  1  0
 14 16  1  0
 16 17  2  0
  6 18  1  0
 18 19  2  0
 19 20  1  0
 20 21  2  0
 21 22  1  0
 22 23  2  0
 23 24  1  0
 24 25  2  0
 25  2  1  0
 24  5  1  0
 17 11  1  0
 23 19  1  0
  1 26  1  0
  1 27  1  0
  3 28  1  0
  4 29  1  0
  7 30  1  0
 12 31  1  0
 13 32  1  0
 15 33  1  0
 15 34  1  0
 17 35  1  0
 18 36  1  0
 21 37  1  0
 22 38  1  0
 25 39  1  0
M  END
>  <Energy>  (851) 
-11.640540120208628

>  <compound_id>  (851) 
2149

>  <target_id>  (851) 
1

>  <reference_id>  (851) 
105

>  <inspiration_ids>  (851) 
[40, 105]

>  <energy_score>  (851) 
-42.637695520693086

>  <distance_score>  (851) 
2.365452928485885

>  <path>  (851) 
/opt/xchem-fragalysis-2/maxwin/BulkDock/SCRATCH/505732/C2149-P105/C2149-P105.minimised.mol

>  <scratch_subdir>  (851) 
/opt/xchem-fragalysis-2/maxwin/BulkDock/SCRATCH/505732/C2149-P105

>  <fragmenstein_runtime>  (851) 
2.424226999282837

>  <fragmenstein_outcome>  (851) 
too moved

>  <fragmenstein_mode>  (851) 
expansion

>  <fragmenstein_error>  (851) 


$$$$
C2150-P40
     RDKit          3D

 31 32  0  0  0  0  0  0  0  0999 V2000
   -1.1476   -8.2044   31.7987 C   0  0  0  0  0  0  0  0  0  0  0  0
   -0.8635   -7.6642   33.1878 C   0  0  0  0  0  0  0  0  0  0  0  0
    0.0436   -6.5643   33.1813 O   0  0  0  0  0  0  0  0  0  0  0  0
   -0.2889   -5.4968   32.4244 C   0  0  0  0  0  0  0  0  0  0  0  0
   -1.2561   -5.3847   31.6881 O   0  0  0  0  0  0  0  0  0  0  0  0
    0.7181   -4.5022   32.5578 C   0  0  0  0  0  0  0  0  0  0  0  0
    1.6573   -4.2997   33.5439 C   0  0  0  0  0  0  0  0  0  0  0  0
    2.3181   -3.0771   33.2746 C   0  0  0  0  0  0  0  0  0  0  0  0
    3.2595   -2.2993   33.9718 C   0  0  0  0  0  0  0  0  0  0  0  0
    3.6877   -1.0784   33.4186 C   0  0  0  0  0  0  0  0  0  0  0  0
    4.6117   -0.1226   34.1527 C   0  0  0  0  0  0  0  0  0  0  0  0
    5.3781   -0.7588   35.2260 N   0  0  0  0  0  0  0  0  0  0  0  0
    3.8186    1.0580   34.6352 N   0  0  0  0  0  0  0  0  0  0  0  0
    4.0086    2.0650   33.9397 O   0  0  0  0  0  0  0  0  0  0  0  0
    3.1906   -0.6846   32.1612 C   0  0  0  0  0  0  0  0  0  0  0  0
    2.2545   -1.4407   31.4598 C   0  0  0  0  0  0  0  0  0  0  0  0
    1.8257   -2.6180   32.0580 C   0  0  0  0  0  0  0  0  0  0  0  0
    0.8612   -3.4965   31.6454 N   0  0  0  0  0  0  0  0  0  0  0  0
   -1.9163   -7.6106   31.3026 H   0  0  0  0  0  0  0  0  0  0  0  0
   -0.2587   -8.1744   31.1633 H   0  0  0  0  0  0  0  0  0  0  0  0
   -1.5226   -9.2254   31.8547 H   0  0  0  0  0  0  0  0  0  0  0  0
   -0.3589   -8.4288   33.7776 H   0  0  0  0  0  0  0  0  0  0  0  0
   -1.7744   -7.3895   33.7243 H   0  0  0  0  0  0  0  0  0  0  0  0
    1.7895   -4.9179   34.4232 H   0  0  0  0  0  0  0  0  0  0  0  0
    3.6061   -2.6231   34.9494 H   0  0  0  0  0  0  0  0  0  0  0  0
    5.3460    0.2541   33.4272 H   0  0  0  0  0  0  0  0  0  0  0  0
    5.9692   -0.0456   35.6480 H   0  0  0  0  0  0  0  0  0  0  0  0
    6.0044   -1.4382   34.8010 H   0  0  0  0  0  0  0  0  0  0  0  0
    3.5082    0.2638   31.7267 H   0  0  0  0  0  0  0  0  0  0  0  0
    1.8540   -1.0963   30.5118 H   0  0  0  0  0  0  0  0  0  0  0  0
    0.2825   -3.3804   30.8230 H   0  0  0  0  0  0  0  0  0  0  0  0
  1  2  1  0
  2  3  1  0
  3  4  1  0
  4  5  2  0
  4  6  1  0
  6  7  2  0
  7  8  1  0
  8  9  2  0
  9 10  1  0
 10 11  1  0
 11 12  1  0
 11 13  1  0
 13 14  2  0
 10 15  2  0
 15 16  1  0
 16 17  2  0
 17 18  1  0
 18  6  1  0
 17  8  1  0
  1 19  1  0
  1 20  1  0
  1 21  1  0
  2 22  1  0
  2 23  1  0
  7 24  1  0
  9 25  1  0
 11 26  1  0
 12 27  1  0
 12 28  1  0
 15 29  1  0
 16 30  1  0
 18 31  1  0
M  END
>  <Energy>  (852) 
3.9523738424686279

>  <compound_id>  (852) 
2150

>  <target_id>  (852) 
1

>  <reference_id>  (852) 
40

>  <inspiration_ids>  (852) 
[40, 128]

>  <energy_score>  (852) 
-21.891051400355934

>  <distance_score>  (852) 
1.6447300714979627

>  <path>  (852) 
/opt/xchem-fragalysis-2/maxwin/BulkDock/SCRATCH/505732/C2150-P40/C2150-P40.minimised.mol

>  <scratch_subdir>  (852) 
/opt/xchem-fragalysis-2/maxwin/BulkDock/SCRATCH/505732/C2150-P40

>  <fragmenstein_runtime>  (852) 
15.295887470245361

>  <fragmenstein_outcome>  (852) 
too moved

>  <fragmenstein_mode>  (852) 
expansion

>  <fragmenstein_error>  (852) 


$$$$
C2150-P128
     RDKit          3D

 31 32  0  0  0  0  0  0  0  0999 V2000
   -1.1983   -8.1389   31.7844 C   0  0  0  0  0  0  0  0  0  0  0  0
   -1.0564   -7.5364   33.1697 C   0  0  0  0  0  0  0  0  0  0  0  0
   -0.0683   -6.5108   33.1890 O   0  0  0  0  0  0  0  0  0  0  0  0
   -0.3886   -5.4019   32.4828 C   0  0  0  0  0  0  0  0  0  0  0  0
   -1.3914   -5.2229   31.8099 O   0  0  0  0  0  0  0  0  0  0  0  0
    0.6701   -4.4590   32.5807 C   0  0  0  0  0  0  0  0  0  0  0  0
    1.6490   -4.2962   33.5347 C   0  0  0  0  0  0  0  0  0  0  0  0
    2.3251   -3.0821   33.2600 C   0  0  0  0  0  0  0  0  0  0  0  0
    3.2869   -2.3196   33.9469 C   0  0  0  0  0  0  0  0  0  0  0  0
    3.7117   -1.0945   33.3995 C   0  0  0  0  0  0  0  0  0  0  0  0
    4.6406   -0.1436   34.1341 C   0  0  0  0  0  0  0  0  0  0  0  0
    5.4224   -0.7901   35.1903 N   0  0  0  0  0  0  0  0  0  0  0  0
    3.8487    1.0283   34.6395 N   0  0  0  0  0  0  0  0  0  0  0  0
    4.0262    2.0437   33.9529 O   0  0  0  0  0  0  0  0  0  0  0  0
    3.2005   -0.6868   32.1523 C   0  0  0  0  0  0  0  0  0  0  0  0
    2.2474   -1.4290   31.4596 C   0  0  0  0  0  0  0  0  0  0  0  0
    1.8148   -2.6048   32.0577 C   0  0  0  0  0  0  0  0  0  0  0  0
    0.8219   -3.4592   31.6632 N   0  0  0  0  0  0  0  0  0  0  0  0
   -1.8161   -7.5076   31.1440 H   0  0  0  0  0  0  0  0  0  0  0  0
   -0.2309   -8.2309   31.2863 H   0  0  0  0  0  0  0  0  0  0  0  0
   -1.6740   -9.1162   31.8376 H   0  0  0  0  0  0  0  0  0  0  0  0
   -0.7181   -8.2869   33.8800 H   0  0  0  0  0  0  0  0  0  0  0  0
   -1.9956   -7.1494   33.5605 H   0  0  0  0  0  0  0  0  0  0  0  0
    1.7836   -4.9201   34.4094 H   0  0  0  0  0  0  0  0  0  0  0  0
    3.6438   -2.6526   34.9177 H   0  0  0  0  0  0  0  0  0  0  0  0
    5.3649    0.2447   33.4047 H   0  0  0  0  0  0  0  0  0  0  0  0
    6.0101   -0.0779   35.6185 H   0  0  0  0  0  0  0  0  0  0  0  0
    6.0509   -1.4566   34.7490 H   0  0  0  0  0  0  0  0  0  0  0  0
    3.5150    0.2651   31.7230 H   0  0  0  0  0  0  0  0  0  0  0  0
    1.8296   -1.0703   30.5242 H   0  0  0  0  0  0  0  0  0  0  0  0
    0.2162   -3.3180   30.8639 H   0  0  0  0  0  0  0  0  0  0  0  0
  1  2  1  0
  2  3  1  0
  3  4  1  0
  4  5  2  0
  4  6  1  0
  6  7  2  0
  7  8  1  0
  8  9  2  0
  9 10  1  0
 10 11  1  0
 11 12  1  0
 11 13  1  0
 13 14  2  0
 10 15  2  0
 15 16  1  0
 16 17  2  0
 17 18  1  0
 18  6  1  0
 17  8  1  0
  1 19  1  0
  1 20  1  0
  1 21  1  0
  2 22  1  0
  2 23  1  0
  7 24  1  0
  9 25  1  0
 11 26  1  0
 12 27  1  0
 12 28  1  0
 15 29  1  0
 16 30  1  0
 18 31  1  0
M  END
>  <Energy>  (853) 
3.317238867215567

>  <compound_id>  (853) 
2150

>  <target_id>  (853) 
1

>  <reference_id>  (853) 
128

>  <inspiration_ids>  (853) 
[40, 128]

>  <energy_score>  (853) 
-22.52618637561133

>  <distance_score>  (853) 
1.6616319771199601

>  <path>  (853) 
/opt/xchem-fragalysis-2/maxwin/BulkDock/SCRATCH/505732/C2150-P128/C2150-P128.minimised.mol

>  <scratch_subdir>  (853) 
/opt/xchem-fragalysis-2/maxwin/BulkDock/SCRATCH/505732/C2150-P128

>  <fragmenstein_runtime>  (853) 
15.484720945358276

>  <fragmenstein_outcome>  (853) 
too moved

>  <fragmenstein_mode>  (853) 
expansion

>  <fragmenstein_error>  (853) 


$$$$
C2151-P40
     RDKit          3D

 31 32  0  0  0  0  0  0  0  0999 V2000
    4.6535   -0.8080   25.9052 C   0  0  0  0  0  0  0  0  0  0  0  0
    5.2215   -1.9020   26.7860 C   0  0  0  0  0  0  0  0  0  0  0  0
    4.2958   -2.9937   26.9143 O   0  0  0  0  0  0  0  0  0  0  0  0
    3.4149   -2.8932   27.9432 C   0  0  0  0  0  0  0  0  0  0  0  0
    3.2267   -1.9353   28.6762 O   0  0  0  0  0  0  0  0  0  0  0  0
    2.7422   -4.1245   28.1294 N   0  0  0  0  0  0  0  0  0  0  0  0
    2.9306   -5.2830   27.3848 C   0  0  0  0  0  0  0  0  0  0  0  0
    2.2623   -6.3193   27.9863 C   0  0  0  0  0  0  0  0  0  0  0  0
    1.5248   -5.7963   29.0719 C   0  0  0  0  0  0  0  0  0  0  0  0
    0.6559   -6.3684   30.0305 C   0  0  0  0  0  0  0  0  0  0  0  0
    0.1666   -5.5989   31.1032 C   0  0  0  0  0  0  0  0  0  0  0  0
   -0.7412   -6.1891   32.1782 C   0  0  0  0  0  0  0  0  0  0  0  0
   -0.7056   -5.4213   33.4128 N   0  0  0  0  0  0  0  0  0  0  0  0
   -0.5197   -7.6473   32.4233 N   0  0  0  0  0  0  0  0  0  0  0  0
   -1.4948   -8.3352   32.0908 O   0  0  0  0  0  0  0  0  0  0  0  0
    0.4417   -4.2228   31.0996 C   0  0  0  0  0  0  0  0  0  0  0  0
    1.2506   -3.6227   30.1315 C   0  0  0  0  0  0  0  0  0  0  0  0
    1.8180   -4.4315   29.1382 C   0  0  0  0  0  0  0  0  0  0  0  0
    4.4702   -1.1905   24.8969 H   0  0  0  0  0  0  0  0  0  0  0  0
    5.3500    0.0321   25.8341 H   0  0  0  0  0  0  0  0  0  0  0  0
    3.6987   -0.4405   26.2931 H   0  0  0  0  0  0  0  0  0  0  0  0
    5.5013   -1.5094   27.7707 H   0  0  0  0  0  0  0  0  0  0  0  0
    6.1328   -2.3051   26.3334 H   0  0  0  0  0  0  0  0  0  0  0  0
    3.6030   -5.2806   26.5342 H   0  0  0  0  0  0  0  0  0  0  0  0
    2.3284   -7.3435   27.6587 H   0  0  0  0  0  0  0  0  0  0  0  0
    0.4144   -7.4258   29.9590 H   0  0  0  0  0  0  0  0  0  0  0  0
   -1.7330   -6.1043   31.7512 H   0  0  0  0  0  0  0  0  0  0  0  0
   -1.4819   -5.6936   34.0131 H   0  0  0  0  0  0  0  0  0  0  0  0
    0.1472   -5.6434   33.9198 H   0  0  0  0  0  0  0  0  0  0  0  0
    0.0280   -3.5768   31.8759 H   0  0  0  0  0  0  0  0  0  0  0  0
    1.4524   -2.5552   30.1872 H   0  0  0  0  0  0  0  0  0  0  0  0
  1  2  1  0
  2  3  1  0
  3  4  1  0
  4  5  2  0
  4  6  1  0
  6  7  1  0
  7  8  2  0
  8  9  1  0
  9 10  2  0
 10 11  1  0
 11 12  1  0
 12 13  1  0
 12 14  1  0
 14 15  2  0
 11 16  2  0
 16 17  1  0
 17 18  2  0
 18  6  1  0
 18  9  1  0
  1 19  1  0
  1 20  1  0
  1 21  1  0
  2 22  1  0
  2 23  1  0
  7 24  1  0
  8 25  1  0
 10 26  1  0
 12 27  1  0
 13 28  1  0
 13 29  1  0
 16 30  1  0
 17 31  1  0
M  END
>  <Energy>  (854) 
49.290759186592922

>  <compound_id>  (854) 
2151

>  <target_id>  (854) 
1

>  <reference_id>  (854) 
40

>  <inspiration_ids>  (854) 
[40, 129]

>  <energy_score>  (854) 
-23.735489877484213

>  <distance_score>  (854) 
1.2135187742088918

>  <path>  (854) 
/opt/xchem-fragalysis-2/maxwin/BulkDock/SCRATCH/505732/C2151-P40/C2151-P40.minimised.mol

>  <scratch_subdir>  (854) 
/opt/xchem-fragalysis-2/maxwin/BulkDock/SCRATCH/505732/C2151-P40

>  <fragmenstein_runtime>  (854) 
1.7006542682647705

>  <fragmenstein_outcome>  (854) 
too moved

>  <fragmenstein_mode>  (854) 
expansion

>  <fragmenstein_error>  (854) 


$$$$
C2151-P129
     RDKit          3D

 31 32  0  0  0  0  0  0  0  0999 V2000
    4.9095   -0.6085   26.3595 C   0  0  0  0  0  0  0  0  0  0  0  0
    3.7205   -0.6335   27.2895 C   0  0  0  0  0  0  0  0  0  0  0  0
    3.3598   -1.9995   27.5034 O   0  0  0  0  0  0  0  0  0  0  0  0
    2.3948   -2.1508   28.4437 C   0  0  0  0  0  0  0  0  0  0  0  0
    1.8229   -1.2709   29.0688 O   0  0  0  0  0  0  0  0  0  0  0  0
    2.1503   -3.5218   28.6700 N   0  0  0  0  0  0  0  0  0  0  0  0
    2.7418   -4.5912   28.0029 C   0  0  0  0  0  0  0  0  0  0  0  0
    2.3486   -5.7641   28.5970 C   0  0  0  0  0  0  0  0  0  0  0  0
    1.4245   -5.4427   29.6226 C   0  0  0  0  0  0  0  0  0  0  0  0
    0.6833   -6.2068   30.5498 C   0  0  0  0  0  0  0  0  0  0  0  0
   -0.0877   -5.5854   31.5487 C   0  0  0  0  0  0  0  0  0  0  0  0
   -0.7733   -6.3589   32.6656 C   0  0  0  0  0  0  0  0  0  0  0  0
   -0.1950   -6.0344   33.9631 N   0  0  0  0  0  0  0  0  0  0  0  0
   -0.7935   -7.8322   32.4250 N   0  0  0  0  0  0  0  0  0  0  0  0
   -1.8860   -8.2408   32.0176 O   0  0  0  0  0  0  0  0  0  0  0  0
   -0.2059   -4.1908   31.5173 C   0  0  0  0  0  0  0  0  0  0  0  0
    0.4594   -3.4155   30.5659 C   0  0  0  0  0  0  0  0  0  0  0  0
    1.3001   -4.0540   29.6425 C   0  0  0  0  0  0  0  0  0  0  0  0
    5.2454    0.4186   26.2097 H   0  0  0  0  0  0  0  0  0  0  0  0
    4.6560   -1.0502   25.3906 H   0  0  0  0  0  0  0  0  0  0  0  0
    5.7371   -1.1956   26.7712 H   0  0  0  0  0  0  0  0  0  0  0  0
    2.8797   -0.0942   26.8409 H   0  0  0  0  0  0  0  0  0  0  0  0
    3.9936   -0.1618   28.2407 H   0  0  0  0  0  0  0  0  0  0  0  0
    3.4351   -4.4086   27.1910 H   0  0  0  0  0  0  0  0  0  0  0  0
    2.6861   -6.7423   28.3001 H   0  0  0  0  0  0  0  0  0  0  0  0
    0.7403   -7.2881   30.5065 H   0  0  0  0  0  0  0  0  0  0  0  0
   -1.8087   -6.0410   32.6940 H   0  0  0  0  0  0  0  0  0  0  0  0
   -0.3775   -5.0531   34.1664 H   0  0  0  0  0  0  0  0  0  0  0  0
   -0.7122   -6.5529   34.6724 H   0  0  0  0  0  0  0  0  0  0  0  0
   -0.8134   -3.6729   32.2593 H   0  0  0  0  0  0  0  0  0  0  0  0
    0.3485   -2.3338   30.5871 H   0  0  0  0  0  0  0  0  0  0  0  0
  1  2  1  0
  2  3  1  0
  3  4  1  0
  4  5  2  0
  4  6  1  0
  6  7  1  0
  7  8  2  0
  8  9  1  0
  9 10  2  0
 10 11  1  0
 11 12  1  0
 12 13  1  0
 12 14  1  0
 14 15  2  0
 11 16  2  0
 16 17  1  0
 17 18  2  0
 18  6  1  0
 18  9  1  0
  1 19  1  0
  1 20  1  0
  1 21  1  0
  2 22  1  0
  2 23  1  0
  7 24  1  0
  8 25  1  0
 10 26  1  0
 12 27  1  0
 13 28  1  0
 13 29  1  0
 16 30  1  0
 17 31  1  0
M  END
>  <Energy>  (855) 
49.94964753013565

>  <compound_id>  (855) 
2151

>  <target_id>  (855) 
1

>  <reference_id>  (855) 
129

>  <inspiration_ids>  (855) 
[40, 129]

>  <energy_score>  (855) 
-23.076601533942778

>  <distance_score>  (855) 
1.6317370899177557

>  <path>  (855) 
/opt/xchem-fragalysis-2/maxwin/BulkDock/SCRATCH/505732/C2151-P129/C2151-P129.minimised.mol

>  <scratch_subdir>  (855) 
/opt/xchem-fragalysis-2/maxwin/BulkDock/SCRATCH/505732/C2151-P129

>  <fragmenstein_runtime>  (855) 
1.7665870189666748

>  <fragmenstein_outcome>  (855) 
too moved

>  <fragmenstein_mode>  (855) 
expansion

>  <fragmenstein_error>  (855) 


$$$$
C1605-P40
     RDKit          3D

 56 59  0  0  0  0  0  0  0  0999 V2000
   -0.2676   -0.9805   34.5296 C   0  0  0  0  0  0  0  0  0  0  0  0
    0.1182   -0.6075   33.1122 C   0  0  0  0  0  0  0  0  0  0  0  0
   -0.8137   -1.5307   31.9177 S   0  0  0  0  0  0  0  0  0  0  0  0
   -2.1078   -0.9253   31.7217 O   0  0  0  0  0  0  0  0  0  0  0  0
   -0.5882   -3.0124   32.1898 N   0  0  0  0  0  0  0  0  0  0  0  0
   -1.7896   -3.8289   32.4658 C   0  0  0  0  0  0  0  0  0  0  0  0
   -1.2395   -5.2931   32.6318 N   0  0  0  0  0  0  0  0  0  0  0  0
   -0.7706   -5.7880   31.3751 C   0  0  0  0  0  0  0  0  0  0  0  0
   -1.3418   -6.4079   30.5161 O   0  0  0  0  0  0  0  0  0  0  0  0
    0.6853   -5.3651   31.0016 C   0  0  0  0  0  0  0  0  0  0  0  0
    1.8781   -5.3487   31.7478 O   0  0  0  0  0  0  0  0  0  0  0  0
    2.8029   -4.6659   30.8720 C   0  0  0  0  0  0  0  0  0  0  0  0
    2.5839   -5.3330   29.5247 C   0  0  0  0  0  0  0  0  0  0  0  0
    1.1072   -5.7364   29.5565 C   0  0  0  0  0  0  0  0  0  0  0  0
    0.8682   -7.1815   29.1401 C   0  0  0  0  0  0  0  0  0  0  0  0
   -2.6348   -5.4998   33.3648 C   0  0  0  0  0  0  0  0  0  0  0  0
   -2.9638   -6.9108   34.4826 C   0  0  0  0  0  0  0  0  0  0  0  0
   -4.9175   -7.2821   34.6151 N   0  0  0  0  0  0  0  0  0  0  0  0
   -6.0459   -5.7786   34.2370 N   0  0  0  0  0  0  0  0  0  0  0  0
   -4.7844   -4.1288   33.0353 S   0  0  0  0  0  0  0  0  0  0  0  0
    0.0072   -1.4174   30.4601 N   0  0  0  0  0  0  0  0  0  0  0  0
   -0.6844   -1.3703   29.1813 C   0  0  0  0  0  0  0  0  0  0  0  0
   -0.7948    0.0219   28.6077 C   0  0  0  0  0  0  0  0  0  0  0  0
   -0.0015    1.1053   29.0589 C   0  0  0  0  0  0  0  0  0  0  0  0
   -0.1055    2.3735   28.4768 C   0  0  0  0  0  0  0  0  0  0  0  0
   -1.0019    2.5316   27.4453 C   0  0  0  0  0  0  0  0  0  0  0  0
   -1.7581    1.4841   26.9814 C   0  0  0  0  0  0  0  0  0  0  0  0
   -1.6690    0.2230   27.5279 C   0  0  0  0  0  0  0  0  0  0  0  0
   -2.5507    1.8405   25.9372 O   0  0  0  0  0  0  0  0  0  0  0  0
   -2.3161    3.2624   25.8987 C   0  0  0  0  0  0  0  0  0  0  0  0
   -1.2347    3.6816   26.7587 O   0  0  0  0  0  0  0  0  0  0  0  0
    0.2774   -0.3577   35.2457 H   0  0  0  0  0  0  0  0  0  0  0  0
   -0.0323   -2.0267   34.7487 H   0  0  0  0  0  0  0  0  0  0  0  0
   -1.3398   -0.8353   34.6970 H   0  0  0  0  0  0  0  0  0  0  0  0
    1.1799   -0.8150   32.9455 H   0  0  0  0  0  0  0  0  0  0  0  0
   -0.0673    0.4542   32.9237 H   0  0  0  0  0  0  0  0  0  0  0  0
   -2.1409   -3.3408   33.3793 H   0  0  0  0  0  0  0  0  0  0  0  0
   -2.3626   -3.6864   31.5402 H   0  0  0  0  0  0  0  0  0  0  0  0
    0.4928   -4.3067   30.8311 H   0  0  0  0  0  0  0  0  0  0  0  0
    3.8289   -4.7270   31.2369 H   0  0  0  0  0  0  0  0  0  0  0  0
    2.5461   -3.5993   30.8396 H   0  0  0  0  0  0  0  0  0  0  0  0
    2.8154   -4.6532   28.6986 H   0  0  0  0  0  0  0  0  0  0  0  0
    3.2376   -6.2044   29.4206 H   0  0  0  0  0  0  0  0  0  0  0  0
    0.5584   -5.0994   28.8509 H   0  0  0  0  0  0  0  0  0  0  0  0
   -0.1445   -7.3727   28.7944 H   0  0  0  0  0  0  0  0  0  0  0  0
    1.5308   -7.4479   28.3163 H   0  0  0  0  0  0  0  0  0  0  0  0
    0.9547   -7.8827   29.9643 H   0  0  0  0  0  0  0  0  0  0  0  0
   -2.3324   -7.7784   34.6731 H   0  0  0  0  0  0  0  0  0  0  0  0
    0.6062   -2.2313   30.4662 H   0  0  0  0  0  0  0  0  0  0  0  0
   -0.1072   -1.9645   28.4612 H   0  0  0  0  0  0  0  0  0  0  0  0
   -1.6724   -1.8402   29.2533 H   0  0  0  0  0  0  0  0  0  0  0  0
    0.7111    0.9690   29.8680 H   0  0  0  0  0  0  0  0  0  0  0  0
    0.4897    3.2091   28.8265 H   0  0  0  0  0  0  0  0  0  0  0  0
   -2.2563   -0.5911   27.1130 H   0  0  0  0  0  0  0  0  0  0  0  0
   -2.0720    3.5467   24.8692 H   0  0  0  0  0  0  0  0  0  0  0  0
   -3.2332    3.7767   26.1985 H   0  0  0  0  0  0  0  0  0  0  0  0
  1  2  1  0
  2  3  1  0
  3  4  2  0
  3  5  2  0
  5  6  1  0
  6  7  1  0
  7  8  1  0
  8  9  2  0
  8 10  1  0
 10 11  1  0
 11 12  1  0
 12 13  1  0
 13 14  1  0
 14 15  1  0
  7 16  1  0
 16 17  2  0
 17 18  1  0
 18 19  2  0
 19 20  1  0
  3 21  1  0
 21 22  1  0
 22 23  1  0
 23 24  2  0
 24 25  1  0
 25 26  2  0
 26 27  1  0
 27 28  2  0
 27 29  1  0
 29 30  1  0
 30 31  1  0
 14 10  1  0
 20 16  1  0
 28 23  1  0
 31 26  1  0
  1 32  1  0
  1 33  1  0
  1 34  1  0
  2 35  1  0
  2 36  1  0
  6 37  1  0
  6 38  1  0
 10 39  1  0
 12 40  1  0
 12 41  1  0
 13 42  1  0
 13 43  1  0
 14 44  1  0
 15 45  1  0
 15 46  1  0
 15 47  1  0
 17 48  1  0
 21 49  1  0
 22 50  1  0
 22 51  1  0
 24 52  1  0
 25 53  1  0
 28 54  1  0
 30 55  1  0
 30 56  1  0
M  END
>  <Energy>  (856) 
566.41126465964192

>  <compound_id>  (856) 
1605

>  <target_id>  (856) 
1

>  <reference_id>  (856) 
40

>  <inspiration_ids>  (856) 
[40, 130]

>  <energy_score>  (856) 
498.89338697546515

>  <distance_score>  (856) 
2.5092274117978524

>  <path>  (856) 
/opt/xchem-fragalysis-2/maxwin/BulkDock/SCRATCH/505732/C1605-P40/C1605-P40.minimised.mol

>  <scratch_subdir>  (856) 
/opt/xchem-fragalysis-2/maxwin/BulkDock/SCRATCH/505732/C1605-P40

>  <fragmenstein_runtime>  (856) 
7.290298700332642

>  <fragmenstein_outcome>  (856) 
too moved

>  <fragmenstein_mode>  (856) 
expansion

>  <fragmenstein_error>  (856) 


$$$$
C1605-P130
     RDKit          3D

 56 59  0  0  0  0  0  0  0  0999 V2000
   -2.8637   -0.7477   33.1798 C   0  0  0  0  0  0  0  0  0  0  0  0
   -1.4891   -0.3333   32.7243 C   0  0  0  0  0  0  0  0  0  0  0  0
   -0.5697   -1.5521   31.8464 S   0  0  0  0  0  0  0  0  0  0  0  0
    0.6901   -0.9218   31.5336 O   0  0  0  0  0  0  0  0  0  0  0  0
   -0.6332   -2.9052   32.5318 N   0  0  0  0  0  0  0  0  0  0  0  0
   -1.7624   -3.8412   32.5682 C   0  0  0  0  0  0  0  0  0  0  0  0
   -1.1540   -5.1803   33.0135 N   0  0  0  0  0  0  0  0  0  0  0  0
   -0.2158   -5.6458   32.0242 C   0  0  0  0  0  0  0  0  0  0  0  0
   -0.3756   -6.3605   31.0683 O   0  0  0  0  0  0  0  0  0  0  0  0
    1.1955   -5.0624   32.3870 C   0  0  0  0  0  0  0  0  0  0  0  0
    2.2028   -5.9622   32.8704 O   0  0  0  0  0  0  0  0  0  0  0  0
    3.3405   -5.0960   33.0414 C   0  0  0  0  0  0  0  0  0  0  0  0
    3.3509   -4.2086   31.8096 C   0  0  0  0  0  0  0  0  0  0  0  0
    1.9260   -4.2987   31.2691 C   0  0  0  0  0  0  0  0  0  0  0  0
    1.8986   -4.9396   29.8863 C   0  0  0  0  0  0  0  0  0  0  0  0
   -2.6644   -5.5477   33.2398 C   0  0  0  0  0  0  0  0  0  0  0  0
   -3.0260   -6.9145   34.4349 C   0  0  0  0  0  0  0  0  0  0  0  0
   -4.9908   -7.3011   34.5451 N   0  0  0  0  0  0  0  0  0  0  0  0
   -6.0992   -5.7797   34.0693 N   0  0  0  0  0  0  0  0  0  0  0  0
   -4.7513   -4.0984   32.9990 S   0  0  0  0  0  0  0  0  0  0  0  0
   -1.2979   -1.8160   30.3433 N   0  0  0  0  0  0  0  0  0  0  0  0
   -0.5230   -1.6855   29.1046 C   0  0  0  0  0  0  0  0  0  0  0  0
   -0.5952   -0.2783   28.5513 C   0  0  0  0  0  0  0  0  0  0  0  0
    0.2889    0.7348   28.9858 C   0  0  0  0  0  0  0  0  0  0  0  0
    0.1504    2.0569   28.5501 C   0  0  0  0  0  0  0  0  0  0  0  0
   -0.8744    2.3383   27.6772 C   0  0  0  0  0  0  0  0  0  0  0  0
   -1.7204    1.3582   27.2224 C   0  0  0  0  0  0  0  0  0  0  0  0
   -1.5984    0.0468   27.6282 C   0  0  0  0  0  0  0  0  0  0  0  0
   -2.6466    1.8366   26.3506 O   0  0  0  0  0  0  0  0  0  0  0  0
   -2.3726    3.2531   26.4220 C   0  0  0  0  0  0  0  0  0  0  0  0
   -1.1665    3.5578   27.1546 O   0  0  0  0  0  0  0  0  0  0  0  0
   -3.4299   -1.2275   32.3786 H   0  0  0  0  0  0  0  0  0  0  0  0
   -3.4271    0.1303   33.5118 H   0  0  0  0  0  0  0  0  0  0  0  0
   -2.8102   -1.4223   34.0379 H   0  0  0  0  0  0  0  0  0  0  0  0
   -0.8841   -0.0289   33.5850 H   0  0  0  0  0  0  0  0  0  0  0  0
   -1.5636    0.5331   32.0583 H   0  0  0  0  0  0  0  0  0  0  0  0
   -2.1314   -3.8965   31.5386 H   0  0  0  0  0  0  0  0  0  0  0  0
   -2.3636   -3.3313   33.3092 H   0  0  0  0  0  0  0  0  0  0  0  0
    1.0476   -4.3827   33.2364 H   0  0  0  0  0  0  0  0  0  0  0  0
    4.2597   -5.6665   33.1763 H   0  0  0  0  0  0  0  0  0  0  0  0
    3.1960   -4.5042   33.9543 H   0  0  0  0  0  0  0  0  0  0  0  0
    3.6227   -3.1831   32.0828 H   0  0  0  0  0  0  0  0  0  0  0  0
    4.0932   -4.5494   31.0809 H   0  0  0  0  0  0  0  0  0  0  0  0
    1.5304   -3.2936   31.1453 H   0  0  0  0  0  0  0  0  0  0  0  0
    0.8959   -4.8816   29.4528 H   0  0  0  0  0  0  0  0  0  0  0  0
    2.5717   -4.4113   29.2020 H   0  0  0  0  0  0  0  0  0  0  0  0
    2.2033   -5.9858   29.9149 H   0  0  0  0  0  0  0  0  0  0  0  0
   -2.3806   -7.7409   34.7306 H   0  0  0  0  0  0  0  0  0  0  0  0
   -2.0787   -1.1764   30.2490 H   0  0  0  0  0  0  0  0  0  0  0  0
    0.5190   -2.0015   29.2275 H   0  0  0  0  0  0  0  0  0  0  0  0
   -0.9490   -2.3787   28.3702 H   0  0  0  0  0  0  0  0  0  0  0  0
    1.1036    0.4996   29.6675 H   0  0  0  0  0  0  0  0  0  0  0  0
    0.8244    2.8361   28.8881 H   0  0  0  0  0  0  0  0  0  0  0  0
   -2.2587   -0.7152   27.2277 H   0  0  0  0  0  0  0  0  0  0  0  0
   -2.2722    3.6415   25.4027 H   0  0  0  0  0  0  0  0  0  0  0  0
   -3.2164    3.7478   26.9111 H   0  0  0  0  0  0  0  0  0  0  0  0
  1  2  1  0
  2  3  1  0
  3  4  2  0
  3  5  2  0
  5  6  1  0
  6  7  1  0
  7  8  1  0
  8  9  2  0
  8 10  1  0
 10 11  1  0
 11 12  1  0
 12 13  1  0
 13 14  1  0
 14 15  1  0
  7 16  1  0
 16 17  2  0
 17 18  1  0
 18 19  2  0
 19 20  1  0
  3 21  1  0
 21 22  1  0
 22 23  1  0
 23 24  2  0
 24 25  1  0
 25 26  2  0
 26 27  1  0
 27 28  2  0
 27 29  1  0
 29 30  1  0
 30 31  1  0
 14 10  1  0
 20 16  1  0
 28 23  1  0
 31 26  1  0
  1 32  1  0
  1 33  1  0
  1 34  1  0
  2 35  1  0
  2 36  1  0
  6 37  1  0
  6 38  1  0
 10 39  1  0
 12 40  1  0
 12 41  1  0
 13 42  1  0
 13 43  1  0
 14 44  1  0
 15 45  1  0
 15 46  1  0
 15 47  1  0
 17 48  1  0
 21 49  1  0
 22 50  1  0
 22 51  1  0
 24 52  1  0
 25 53  1  0
 28 54  1  0
 30 55  1  0
 30 56  1  0
M  END
>  <Energy>  (857) 
583.13818184038439

>  <compound_id>  (857) 
1605

>  <target_id>  (857) 
1

>  <reference_id>  (857) 
130

>  <inspiration_ids>  (857) 
[40, 130]

>  <energy_score>  (857) 
515.6203041562117

>  <distance_score>  (857) 
3.562252047797686

>  <path>  (857) 
/opt/xchem-fragalysis-2/maxwin/BulkDock/SCRATCH/505732/C1605-P130/C1605-P130.minimised.mol

>  <scratch_subdir>  (857) 
/opt/xchem-fragalysis-2/maxwin/BulkDock/SCRATCH/505732/C1605-P130

>  <fragmenstein_runtime>  (857) 
10.190200567245483

>  <fragmenstein_outcome>  (857) 
too moved

>  <fragmenstein_mode>  (857) 
expansion

>  <fragmenstein_error>  (857) 


$$$$
C2153-P40
     RDKit          3D

 43 46  0  0  0  0  0  0  0  0999 V2000
   -1.0358   -4.4074   36.4485 C   0  0  0  0  0  0  0  0  0  0  0  0
   -0.7289   -5.4966   35.4119 C   0  0  0  0  0  0  0  0  0  0  0  0
    0.5589   -6.2095   35.7738 C   0  0  0  0  0  0  0  0  0  0  0  0
    1.6101   -5.2448   35.2740 C   0  0  0  0  0  0  0  0  0  0  0  0
    1.0183   -4.5114   34.1822 O   0  0  0  0  0  0  0  0  0  0  0  0
   -0.3712   -4.8874   34.0533 C   0  0  0  0  0  0  0  0  0  0  0  0
   -0.5905   -5.8578   32.8400 C   0  0  0  0  0  0  0  0  0  0  0  0
   -1.3259   -6.8412   32.9387 O   0  0  0  0  0  0  0  0  0  0  0  0
    0.2378   -5.5319   31.5353 C   0  0  0  0  0  0  0  0  0  0  0  0
    1.6156   -5.6438   31.9975 N   0  0  0  0  0  0  0  0  0  0  0  0
   -0.1980   -4.1901   30.9126 C   0  0  0  0  0  0  0  0  0  0  0  0
    0.8620   -3.1416   30.5990 C   0  0  0  0  0  0  0  0  0  0  0  0
    2.1853   -3.5748   30.0068 C   0  0  0  0  0  0  0  0  0  0  0  0
    2.2355   -4.1817   28.6495 C   0  0  0  0  0  0  0  0  0  0  0  0
    2.8355   -3.5718   27.6725 N   0  0  0  0  0  0  0  0  0  0  0  0
    3.0439   -4.5247   26.7191 C   0  0  0  0  0  0  0  0  0  0  0  0
    2.5620   -5.7423   26.9565 C   0  0  0  0  0  0  0  0  0  0  0  0
    1.9267   -5.5980   28.2720 C   0  0  0  0  0  0  0  0  0  0  0  0
    1.3221   -6.8165   29.2922 S   0  0  0  0  0  0  0  0  0  0  0  0
    0.6059   -7.9828   28.4669 N   0  0  0  0  0  0  0  0  0  0  0  0
   -0.3170   -8.5344   29.2333 N   0  0  0  0  0  0  0  0  0  0  0  0
   -0.5779   -7.7428   30.3609 C   0  0  0  0  0  0  0  0  0  0  0  0
    0.1647   -6.5737   30.4660 C   0  0  0  0  0  0  0  0  0  0  0  0
   -1.2603   -4.8581   37.4201 H   0  0  0  0  0  0  0  0  0  0  0  0
   -1.8919   -3.8025   36.1438 H   0  0  0  0  0  0  0  0  0  0  0  0
   -0.2001   -3.7152   36.5932 H   0  0  0  0  0  0  0  0  0  0  0  0
   -1.5697   -6.1938   35.3660 H   0  0  0  0  0  0  0  0  0  0  0  0
    0.6300   -7.1532   35.2190 H   0  0  0  0  0  0  0  0  0  0  0  0
    0.6673   -6.4398   36.8376 H   0  0  0  0  0  0  0  0  0  0  0  0
    1.9066   -4.5240   36.0425 H   0  0  0  0  0  0  0  0  0  0  0  0
    2.5105   -5.7583   34.9240 H   0  0  0  0  0  0  0  0  0  0  0  0
   -0.9513   -3.9832   33.8448 H   0  0  0  0  0  0  0  0  0  0  0  0
    1.7227   -6.5025   32.5375 H   0  0  0  0  0  0  0  0  0  0  0  0
    1.7947   -4.8903   32.6767 H   0  0  0  0  0  0  0  0  0  0  0  0
   -0.7211   -4.3721   29.9649 H   0  0  0  0  0  0  0  0  0  0  0  0
   -0.9513   -3.7057   31.5469 H   0  0  0  0  0  0  0  0  0  0  0  0
    1.0829   -2.6084   31.5337 H   0  0  0  0  0  0  0  0  0  0  0  0
    0.4077   -2.3936   29.9356 H   0  0  0  0  0  0  0  0  0  0  0  0
    2.7942   -4.1866   30.6722 H   0  0  0  0  0  0  0  0  0  0  0  0
    2.7782   -2.6494   29.9316 H   0  0  0  0  0  0  0  0  0  0  0  0
    3.6424   -4.2707   25.8506 H   0  0  0  0  0  0  0  0  0  0  0  0
    2.7139   -6.6302   26.3725 H   0  0  0  0  0  0  0  0  0  0  0  0
   -1.3073   -8.0910   31.0779 H   0  0  0  0  0  0  0  0  0  0  0  0
  1  2  1  0
  2  3  1  0
  3  4  1  0
  4  5  1  0
  5  6  1  0
  6  7  1  0
  7  8  2  0
  7  9  1  0
  9 10  1  0
  9 11  1  0
 11 12  1  0
 12 13  1  0
 13 14  1  0
 14 15  2  0
 15 16  1  0
 16 17  2  0
 17 18  1  0
 18 19  2  3
 19 20  1  0
 20 21  2  0
 21 22  1  0
 22 23  2  0
  6  2  1  0
 23  9  1  0
 18 14  1  0
 23 19  1  0
  1 24  1  0
  1 25  1  0
  1 26  1  0
  2 27  1  0
  3 28  1  0
  3 29  1  0
  4 30  1  0
  4 31  1  0
  6 32  1  0
 10 33  1  0
 10 34  1  0
 11 35  1  0
 11 36  1  0
 12 37  1  0
 12 38  1  0
 13 39  1  0
 13 40  1  0
 16 41  1  0
 17 42  1  0
 22 43  1  0
M  END
>  <Energy>  (858) 
174.71928787086946

>  <compound_id>  (858) 
2153

>  <target_id>  (858) 
1

>  <reference_id>  (858) 
40

>  <inspiration_ids>  (858) 
[40, 132]

>  <energy_score>  (858) 
-50.0384511347163

>  <distance_score>  (858) 
2.3697049976746483

>  <path>  (858) 
/opt/xchem-fragalysis-2/maxwin/BulkDock/SCRATCH/505732/C2153-P40/C2153-P40.minimised.mol

>  <scratch_subdir>  (858) 
/opt/xchem-fragalysis-2/maxwin/BulkDock/SCRATCH/505732/C2153-P40

>  <fragmenstein_runtime>  (858) 
4.6041295528411865

>  <fragmenstein_outcome>  (858) 
too moved

>  <fragmenstein_mode>  (858) 
expansion

>  <fragmenstein_error>  (858) 


$$$$
C2153-P132
     RDKit          3D

 43 46  0  0  0  0  0  0  0  0999 V2000
   -0.8797   -4.5563   37.2445 C   0  0  0  0  0  0  0  0  0  0  0  0
   -0.5224   -5.6074   36.1902 C   0  0  0  0  0  0  0  0  0  0  0  0
    0.8230   -6.2387   36.4866 C   0  0  0  0  0  0  0  0  0  0  0  0
    1.7957   -5.2341   35.9093 C   0  0  0  0  0  0  0  0  0  0  0  0
    1.1163   -4.5501   34.8418 O   0  0  0  0  0  0  0  0  0  0  0  0
   -0.2700   -4.9537   34.8328 C   0  0  0  0  0  0  0  0  0  0  0  0
   -0.5016   -5.8903   33.6294 C   0  0  0  0  0  0  0  0  0  0  0  0
   -0.9734   -7.0200   33.7889 O   0  0  0  0  0  0  0  0  0  0  0  0
   -0.0076   -5.3705   32.2312 C   0  0  0  0  0  0  0  0  0  0  0  0
    1.4544   -5.2417   32.3446 N   0  0  0  0  0  0  0  0  0  0  0  0
   -0.6242   -4.0131   31.8650 C   0  0  0  0  0  0  0  0  0  0  0  0
    0.0487   -3.2111   30.7445 C   0  0  0  0  0  0  0  0  0  0  0  0
   -0.0786   -3.8388   29.3737 C   0  0  0  0  0  0  0  0  0  0  0  0
    1.1917   -4.4436   28.9222 C   0  0  0  0  0  0  0  0  0  0  0  0
    2.0702   -3.8094   28.2060 N   0  0  0  0  0  0  0  0  0  0  0  0
    3.0031   -4.7428   27.8586 C   0  0  0  0  0  0  0  0  0  0  0  0
    2.8076   -5.9860   28.2980 C   0  0  0  0  0  0  0  0  0  0  0  0
    1.6032   -5.8605   29.1375 C   0  0  0  0  0  0  0  0  0  0  0  0
    0.9256   -7.0220   30.2282 S   0  0  0  0  0  0  0  0  0  0  0  0
    0.0422   -8.0758   29.3947 N   0  0  0  0  0  0  0  0  0  0  0  0
   -1.0453   -8.3480   30.0865 N   0  0  0  0  0  0  0  0  0  0  0  0
   -1.2422   -7.4162   31.1049 C   0  0  0  0  0  0  0  0  0  0  0  0
   -0.2667   -6.4294   31.2100 C   0  0  0  0  0  0  0  0  0  0  0  0
   -0.9880   -5.0218   38.2295 H   0  0  0  0  0  0  0  0  0  0  0  0
   -1.8250   -4.0666   36.9906 H   0  0  0  0  0  0  0  0  0  0  0  0
   -0.1193   -3.7729   37.3275 H   0  0  0  0  0  0  0  0  0  0  0  0
   -1.3194   -6.3555   36.1620 H   0  0  0  0  0  0  0  0  0  0  0  0
    0.9133   -7.1884   35.9450 H   0  0  0  0  0  0  0  0  0  0  0  0
    1.0049   -6.4438   37.5455 H   0  0  0  0  0  0  0  0  0  0  0  0
    2.0935   -4.4860   36.6510 H   0  0  0  0  0  0  0  0  0  0  0  0
    2.7000   -5.7093   35.5182 H   0  0  0  0  0  0  0  0  0  0  0  0
   -0.8999   -4.0700   34.7020 H   0  0  0  0  0  0  0  0  0  0  0  0
    1.8346   -6.1193   32.6977 H   0  0  0  0  0  0  0  0  0  0  0  0
    1.6608   -4.5607   33.0892 H   0  0  0  0  0  0  0  0  0  0  0  0
   -1.6810   -4.1385   31.6135 H   0  0  0  0  0  0  0  0  0  0  0  0
   -0.6158   -3.3517   32.7384 H   0  0  0  0  0  0  0  0  0  0  0  0
    1.0920   -2.9891   30.9979 H   0  0  0  0  0  0  0  0  0  0  0  0
   -0.4594   -2.2375   30.7121 H   0  0  0  0  0  0  0  0  0  0  0  0
   -0.3212   -3.0455   28.6548 H   0  0  0  0  0  0  0  0  0  0  0  0
   -0.8843   -4.5609   29.2969 H   0  0  0  0  0  0  0  0  0  0  0  0
    3.8400   -4.4414   27.2377 H   0  0  0  0  0  0  0  0  0  0  0  0
    3.4334   -6.8357   28.1346 H   0  0  0  0  0  0  0  0  0  0  0  0
   -2.1027   -7.5478   31.7472 H   0  0  0  0  0  0  0  0  0  0  0  0
  1  2  1  0
  2  3  1  0
  3  4  1  0
  4  5  1  0
  5  6  1  0
  6  7  1  0
  7  8  2  0
  7  9  1  0
  9 10  1  0
  9 11  1  0
 11 12  1  0
 12 13  1  0
 13 14  1  0
 14 15  2  0
 15 16  1  0
 16 17  2  0
 17 18  1  0
 18 19  2  3
 19 20  1  0
 20 21  2  0
 21 22  1  0
 22 23  2  0
  6  2  1  0
 23  9  1  0
 18 14  1  0
 23 19  1  0
  1 24  1  0
  1 25  1  0
  1 26  1  0
  2 27  1  0
  3 28  1  0
  3 29  1  0
  4 30  1  0
  4 31  1  0
  6 32  1  0
 10 33  1  0
 10 34  1  0
 11 35  1  0
 11 36  1  0
 12 37  1  0
 12 38  1  0
 13 39  1  0
 13 40  1  0
 16 41  1  0
 17 42  1  0
 22 43  1  0
M  END
>  <Energy>  (859) 
154.47325461503479

>  <compound_id>  (859) 
2153

>  <target_id>  (859) 
1

>  <reference_id>  (859) 
132

>  <inspiration_ids>  (859) 
[40, 132]

>  <energy_score>  (859) 
-70.28448439054728

>  <distance_score>  (859) 
2.604010384578491

>  <path>  (859) 
/opt/xchem-fragalysis-2/maxwin/BulkDock/SCRATCH/505732/C2153-P132/C2153-P132.minimised.mol

>  <scratch_subdir>  (859) 
/opt/xchem-fragalysis-2/maxwin/BulkDock/SCRATCH/505732/C2153-P132

>  <fragmenstein_runtime>  (859) 
4.384849786758423

>  <fragmenstein_outcome>  (859) 
too moved

>  <fragmenstein_mode>  (859) 
expansion

>  <fragmenstein_error>  (859) 


$$$$
C566-P40
     RDKit          3D

 57 59  0  0  0  0  0  0  0  0999 V2000
    2.3322   -4.8966   29.9527 C   0  0  0  0  0  0  0  0  0  0  0  0
    1.5125   -5.2835   31.0589 O   0  0  0  0  0  0  0  0  0  0  0  0
    0.5156   -6.1622   30.7588 C   0  0  0  0  0  0  0  0  0  0  0  0
    0.2832   -6.5956   29.6346 O   0  0  0  0  0  0  0  0  0  0  0  0
   -0.3184   -6.5117   31.9829 C   0  0  0  0  0  0  0  0  0  0  0  0
    0.4795   -6.8629   33.1270 N   0  0  0  0  0  0  0  0  0  0  0  0
    0.8257   -6.1179   34.3027 C   0  0  0  0  0  0  0  0  0  0  0  0
    0.6012   -4.9387   34.6202 N   0  0  0  0  0  0  0  0  0  0  0  0
   -0.0503   -3.9128   33.8498 C   0  0  0  0  0  0  0  0  0  0  0  0
   -0.1071   -2.6986   34.7774 C   0  0  0  0  0  0  0  0  0  0  0  0
   -0.2790   -1.3339   34.0875 C   0  0  0  0  0  0  0  0  0  0  0  0
    0.5644   -1.0200   32.7463 N   0  0  0  0  0  0  0  0  0  0  0  0
   -0.1841   -0.1439   31.8833 C   0  0  0  0  0  0  0  0  0  0  0  0
   -0.2026    1.0575   31.8137 O   0  0  0  0  0  0  0  0  0  0  0  0
   -1.0148   -1.0183   30.9072 C   0  0  0  0  0  0  0  0  0  0  0  0
   -2.0190   -0.2628   30.2208 O   0  0  0  0  0  0  0  0  0  0  0  0
   -1.5906   -0.0430   28.8634 C   0  0  0  0  0  0  0  0  0  0  0  0
   -0.1814   -0.5805   28.7477 C   0  0  0  0  0  0  0  0  0  0  0  0
   -0.1316   -1.6409   29.8291 C   0  0  0  0  0  0  0  0  0  0  0  0
   -0.7356   -2.9556   29.3485 C   0  0  0  0  0  0  0  0  0  0  0  0
    1.5927   -0.7322   33.7107 C   0  0  0  0  0  0  0  0  0  0  0  0
    2.6330   -1.5199   34.1888 C   0  0  0  0  0  0  0  0  0  0  0  0
    3.5664   -0.8641   34.9728 N   0  0  0  0  0  0  0  0  0  0  0  0
    3.3409    0.4384   35.0070 N   0  0  0  0  0  0  0  0  0  0  0  0
    2.0411    0.9029   34.0557 S   0  0  0  0  0  0  0  0  0  0  0  0
    1.5747   -6.9198   35.2814 C   0  0  0  0  0  0  0  0  0  0  0  0
    1.9896   -6.5474   36.5871 C   0  0  0  0  0  0  0  0  0  0  0  0
    2.6537   -7.6457   37.0704 C   0  0  0  0  0  0  0  0  0  0  0  0
    3.3318   -7.9646   38.3390 C   0  0  0  0  0  0  0  0  0  0  0  0
    2.6517   -8.6190   36.1232 O   0  0  0  0  0  0  0  0  0  0  0  0
    1.9825   -8.1699   35.0017 N   0  0  0  0  0  0  0  0  0  0  0  0
    2.9427   -5.7418   29.6224 H   0  0  0  0  0  0  0  0  0  0  0  0
    1.7281   -4.5207   29.1233 H   0  0  0  0  0  0  0  0  0  0  0  0
    2.9962   -4.0957   30.2886 H   0  0  0  0  0  0  0  0  0  0  0  0
   -0.9227   -7.3872   31.7175 H   0  0  0  0  0  0  0  0  0  0  0  0
   -1.0197   -5.7011   32.1728 H   0  0  0  0  0  0  0  0  0  0  0  0
    0.7615   -7.8340   33.2570 H   0  0  0  0  0  0  0  0  0  0  0  0
   -1.0696   -4.1842   33.5708 H   0  0  0  0  0  0  0  0  0  0  0  0
    0.5263   -3.6913   32.9486 H   0  0  0  0  0  0  0  0  0  0  0  0
   -0.9518   -2.8343   35.4678 H   0  0  0  0  0  0  0  0  0  0  0  0
    0.7660   -2.6772   35.4393 H   0  0  0  0  0  0  0  0  0  0  0  0
   -1.3154   -1.3510   33.7132 H   0  0  0  0  0  0  0  0  0  0  0  0
   -0.3281   -0.4874   34.7964 H   0  0  0  0  0  0  0  0  0  0  0  0
   -1.5340   -1.7807   31.4987 H   0  0  0  0  0  0  0  0  0  0  0  0
   -2.2733   -0.5858   28.2025 H   0  0  0  0  0  0  0  0  0  0  0  0
   -1.6536    1.0219   28.6241 H   0  0  0  0  0  0  0  0  0  0  0  0
    0.0514   -0.9453   27.7441 H   0  0  0  0  0  0  0  0  0  0  0  0
    0.5331    0.2178   28.9831 H   0  0  0  0  0  0  0  0  0  0  0  0
    0.8967   -1.8248   30.1573 H   0  0  0  0  0  0  0  0  0  0  0  0
   -0.6922   -3.7034   30.1443 H   0  0  0  0  0  0  0  0  0  0  0  0
   -1.7865   -2.8345   29.0772 H   0  0  0  0  0  0  0  0  0  0  0  0
   -0.1997   -3.3420   28.4772 H   0  0  0  0  0  0  0  0  0  0  0  0
    2.7590   -2.5789   34.0075 H   0  0  0  0  0  0  0  0  0  0  0  0
    1.8181   -5.6066   37.0895 H   0  0  0  0  0  0  0  0  0  0  0  0
    2.8518   -8.8192   38.8255 H   0  0  0  0  0  0  0  0  0  0  0  0
    4.3823   -8.2137   38.1604 H   0  0  0  0  0  0  0  0  0  0  0  0
    3.2955   -7.1154   39.0282 H   0  0  0  0  0  0  0  0  0  0  0  0
  1  2  1  0
  2  3  1  0
  3  4  2  0
  3  5  1  0
  5  6  1  0
  6  7  1  0
  7  8  2  3
  8  9  1  0
  9 10  1  0
 10 11  1  0
 11 12  1  0
 12 13  1  0
 13 14  2  0
 13 15  1  0
 15 16  1  0
 16 17  1  0
 17 18  1  0
 18 19  1  0
 19 20  1  0
 12 21  1  0
 21 22  2  0
 22 23  1  0
 23 24  2  0
 24 25  1  0
  7 26  1  0
 26 27  1  0
 27 28  2  0
 28 29  1  0
 28 30  1  0
 30 31  1  0
 19 15  1  0
 25 21  1  0
 31 26  2  0
  1 32  1  0
  1 33  1  0
  1 34  1  0
  5 35  1  0
  5 36  1  0
  6 37  1  0
  9 38  1  0
  9 39  1  0
 10 40  1  0
 10 41  1  0
 11 42  1  0
 11 43  1  0
 15 44  1  0
 17 45  1  0
 17 46  1  0
 18 47  1  0
 18 48  1  0
 19 49  1  0
 20 50  1  0
 20 51  1  0
 20 52  1  0
 22 53  1  0
 27 54  1  0
 29 55  1  0
 29 56  1  0
 29 57  1  0
M  END
>  <Energy>  (860) 
169.51813208114643

>  <compound_id>  (860) 
566

>  <target_id>  (860) 
1

>  <reference_id>  (860) 
40

>  <inspiration_ids>  (860) 
[40, 134]

>  <energy_score>  (860) 
-48.067867965647

>  <distance_score>  (860) 
2.518482957802474

>  <path>  (860) 
/opt/xchem-fragalysis-2/maxwin/BulkDock/SCRATCH/505732/C566-P40/C566-P40.minimised.mol

>  <scratch_subdir>  (860) 
/opt/xchem-fragalysis-2/maxwin/BulkDock/SCRATCH/505732/C566-P40

>  <fragmenstein_runtime>  (860) 
9.488880395889282

>  <fragmenstein_outcome>  (860) 
too moved

>  <fragmenstein_mode>  (860) 
expansion

>  <fragmenstein_error>  (860) 


$$$$
C566-P134
     RDKit          3D

 57 59  0  0  0  0  0  0  0  0999 V2000
    4.0039   -5.6781   25.8526 C   0  0  0  0  0  0  0  0  0  0  0  0
    3.4327   -4.8139   26.8375 O   0  0  0  0  0  0  0  0  0  0  0  0
    2.9422   -5.4537   27.9401 C   0  0  0  0  0  0  0  0  0  0  0  0
    2.9264   -6.6723   28.0871 O   0  0  0  0  0  0  0  0  0  0  0  0
    2.4266   -4.4229   28.9374 C   0  0  0  0  0  0  0  0  0  0  0  0
    1.7223   -5.0297   30.0327 N   0  0  0  0  0  0  0  0  0  0  0  0
    1.5621   -4.6180   31.3962 C   0  0  0  0  0  0  0  0  0  0  0  0
    2.0571   -3.6663   32.0217 N   0  0  0  0  0  0  0  0  0  0  0  0
    1.8514   -3.2455   33.3920 C   0  0  0  0  0  0  0  0  0  0  0  0
    0.4558   -2.6605   33.6191 C   0  0  0  0  0  0  0  0  0  0  0  0
    0.4238   -1.1452   33.2807 C   0  0  0  0  0  0  0  0  0  0  0  0
   -0.9906   -0.4543   32.9214 N   0  0  0  0  0  0  0  0  0  0  0  0
   -1.6252   -1.1563   31.8390 C   0  0  0  0  0  0  0  0  0  0  0  0
   -2.4029   -2.0793   31.8509 O   0  0  0  0  0  0  0  0  0  0  0  0
   -1.1845   -0.5201   30.4909 C   0  0  0  0  0  0  0  0  0  0  0  0
   -0.3949    0.6758   30.6030 O   0  0  0  0  0  0  0  0  0  0  0  0
    0.5968    0.6768   29.5678 C   0  0  0  0  0  0  0  0  0  0  0  0
    0.3212   -0.5179   28.6851 C   0  0  0  0  0  0  0  0  0  0  0  0
   -0.3421   -1.4744   29.6514 C   0  0  0  0  0  0  0  0  0  0  0  0
   -1.1367   -2.5523   28.9529 C   0  0  0  0  0  0  0  0  0  0  0  0
   -1.1686   -0.5652   34.3458 C   0  0  0  0  0  0  0  0  0  0  0  0
   -0.7083    0.2091   35.4074 C   0  0  0  0  0  0  0  0  0  0  0  0
   -1.2442   -0.0970   36.6465 N   0  0  0  0  0  0  0  0  0  0  0  0
   -2.1999   -1.0056   36.5490 N   0  0  0  0  0  0  0  0  0  0  0  0
   -2.5023   -1.4692   34.9674 S   0  0  0  0  0  0  0  0  0  0  0  0
    0.6358   -5.5908   32.0489 C   0  0  0  0  0  0  0  0  0  0  0  0
    0.5604   -6.0355   33.3931 C   0  0  0  0  0  0  0  0  0  0  0  0
   -0.5600   -6.8181   33.4491 C   0  0  0  0  0  0  0  0  0  0  0  0
   -1.2702   -7.4615   34.5648 C   0  0  0  0  0  0  0  0  0  0  0  0
   -1.0636   -6.9630   32.1991 O   0  0  0  0  0  0  0  0  0  0  0  0
   -0.2997   -6.2262   31.3103 N   0  0  0  0  0  0  0  0  0  0  0  0
    3.2505   -6.3728   25.4695 H   0  0  0  0  0  0  0  0  0  0  0  0
    4.3592   -5.0593   25.0242 H   0  0  0  0  0  0  0  0  0  0  0  0
    4.8554   -6.2230   26.2717 H   0  0  0  0  0  0  0  0  0  0  0  0
    3.2890   -3.8630   29.3134 H   0  0  0  0  0  0  0  0  0  0  0  0
    1.7564   -3.7372   28.4135 H   0  0  0  0  0  0  0  0  0  0  0  0
    1.0905   -5.8128   29.8484 H   0  0  0  0  0  0  0  0  0  0  0  0
    2.6015   -2.4769   33.6185 H   0  0  0  0  0  0  0  0  0  0  0  0
    2.0860   -4.0392   34.1012 H   0  0  0  0  0  0  0  0  0  0  0  0
    0.2125   -2.7980   34.6788 H   0  0  0  0  0  0  0  0  0  0  0  0
   -0.3013   -3.1984   33.0434 H   0  0  0  0  0  0  0  0  0  0  0  0
    1.0717   -0.5287   33.9257 H   0  0  0  0  0  0  0  0  0  0  0  0
    0.9436   -1.0581   32.3150 H   0  0  0  0  0  0  0  0  0  0  0  0
   -2.1034   -0.2305   29.9673 H   0  0  0  0  0  0  0  0  0  0  0  0
    0.5550    1.6218   29.0188 H   0  0  0  0  0  0  0  0  0  0  0  0
    1.5775    0.5968   30.0484 H   0  0  0  0  0  0  0  0  0  0  0  0
   -0.3705   -0.2321   27.8830 H   0  0  0  0  0  0  0  0  0  0  0  0
    1.2276   -0.9188   28.2227 H   0  0  0  0  0  0  0  0  0  0  0  0
    0.4278   -1.9477   30.2709 H   0  0  0  0  0  0  0  0  0  0  0  0
   -1.9044   -2.1088   28.3127 H   0  0  0  0  0  0  0  0  0  0  0  0
   -0.4877   -3.1686   28.3270 H   0  0  0  0  0  0  0  0  0  0  0  0
   -1.6224   -3.2142   29.6732 H   0  0  0  0  0  0  0  0  0  0  0  0
    0.0178    1.0079   35.3377 H   0  0  0  0  0  0  0  0  0  0  0  0
    1.1760   -5.7912   34.2412 H   0  0  0  0  0  0  0  0  0  0  0  0
   -2.0931   -8.0841   34.2092 H   0  0  0  0  0  0  0  0  0  0  0  0
   -0.5832   -8.0717   35.1564 H   0  0  0  0  0  0  0  0  0  0  0  0
   -1.6872   -6.7009   35.2312 H   0  0  0  0  0  0  0  0  0  0  0  0
  1  2  1  0
  2  3  1  0
  3  4  2  0
  3  5  1  0
  5  6  1  0
  6  7  1  0
  7  8  2  3
  8  9  1  0
  9 10  1  0
 10 11  1  0
 11 12  1  0
 12 13  1  0
 13 14  2  0
 13 15  1  0
 15 16  1  0
 16 17  1  0
 17 18  1  0
 18 19  1  0
 19 20  1  0
 12 21  1  0
 21 22  2  0
 22 23  1  0
 23 24  2  0
 24 25  1  0
  7 26  1  0
 26 27  1  0
 27 28  2  0
 28 29  1  0
 28 30  1  0
 30 31  1  0
 19 15  1  0
 25 21  1  0
 31 26  2  0
  1 32  1  0
  1 33  1  0
  1 34  1  0
  5 35  1  0
  5 36  1  0
  6 37  1  0
  9 38  1  0
  9 39  1  0
 10 40  1  0
 10 41  1  0
 11 42  1  0
 11 43  1  0
 15 44  1  0
 17 45  1  0
 17 46  1  0
 18 47  1  0
 18 48  1  0
 19 49  1  0
 20 50  1  0
 20 51  1  0
 20 52  1  0
 22 53  1  0
 27 54  1  0
 29 55  1  0
 29 56  1  0
 29 57  1  0
M  END
>  <Energy>  (861) 
175.46463215614074

>  <compound_id>  (861) 
566

>  <target_id>  (861) 
1

>  <reference_id>  (861) 
134

>  <inspiration_ids>  (861) 
[40, 134]

>  <energy_score>  (861) 
-42.121367890652266

>  <distance_score>  (861) 
3.699146960696462

>  <path>  (861) 
/opt/xchem-fragalysis-2/maxwin/BulkDock/SCRATCH/505732/C566-P134/C566-P134.minimised.mol

>  <scratch_subdir>  (861) 
/opt/xchem-fragalysis-2/maxwin/BulkDock/SCRATCH/505732/C566-P134

>  <fragmenstein_runtime>  (861) 
10.97485065460205

>  <fragmenstein_outcome>  (861) 
too moved

>  <fragmenstein_mode>  (861) 
expansion

>  <fragmenstein_error>  (861) 


$$$$
C2155-P40
     RDKit          3D

 36 38  0  0  0  0  0  0  0  0999 V2000
   -0.6491   -2.3975   31.6595 C   0  0  0  0  0  0  0  0  0  0  0  0
   -1.1230   -2.6996   30.2368 C   0  0  0  0  0  0  0  0  0  0  0  0
   -0.9767   -1.4065   29.4290 C   0  0  0  0  0  0  0  0  0  0  0  0
    0.4541   -1.4627   28.9412 C   0  0  0  0  0  0  0  0  0  0  0  0
    0.8350   -2.8491   28.9440 O   0  0  0  0  0  0  0  0  0  0  0  0
   -0.3014   -3.6567   29.3371 C   0  0  0  0  0  0  0  0  0  0  0  0
    0.1044   -5.1745   29.6880 C   0  0  0  0  0  0  0  0  0  0  0  0
   -0.9097   -6.1253   29.3061 O   0  0  0  0  0  0  0  0  0  0  0  0
    1.3203   -5.6378   28.8300 C   0  0  0  0  0  0  0  0  0  0  0  0
    2.6472   -5.0455   29.2429 C   0  0  0  0  0  0  0  0  0  0  0  0
    2.6270   -4.6767   30.6811 C   0  0  0  0  0  0  0  0  0  0  0  0
    1.6370   -4.9308   31.5495 C   0  0  0  0  0  0  0  0  0  0  0  0
    0.3446   -5.4903   31.1669 C   0  0  0  0  0  0  0  0  0  0  0  0
    1.9810   -4.2862   33.1021 S   0  0  0  0  0  0  0  0  0  0  0  0
    3.2714   -3.4077   32.4846 N   0  0  0  0  0  0  0  0  0  0  0  0
    4.3748   -3.5181   33.3509 N   0  0  0  0  0  0  0  0  0  0  0  0
    3.6381   -3.9220   31.2269 N   0  0  0  0  0  0  0  0  0  0  0  0
   -1.1872   -1.5315   32.0634 H   0  0  0  0  0  0  0  0  0  0  0  0
    0.4163   -2.1592   31.6938 H   0  0  0  0  0  0  0  0  0  0  0  0
   -0.8648   -3.2205   32.3408 H   0  0  0  0  0  0  0  0  0  0  0  0
   -2.1707   -3.0044   30.2841 H   0  0  0  0  0  0  0  0  0  0  0  0
   -1.2020   -0.4870   29.9777 H   0  0  0  0  0  0  0  0  0  0  0  0
   -1.6554   -1.4402   28.5669 H   0  0  0  0  0  0  0  0  0  0  0  0
    1.1340   -0.9282   29.6118 H   0  0  0  0  0  0  0  0  0  0  0  0
    0.5659   -1.0542   27.9331 H   0  0  0  0  0  0  0  0  0  0  0  0
   -0.8795   -3.7588   28.4118 H   0  0  0  0  0  0  0  0  0  0  0  0
   -0.6760   -7.0001   29.6621 H   0  0  0  0  0  0  0  0  0  0  0  0
    1.1666   -5.3994   27.7747 H   0  0  0  0  0  0  0  0  0  0  0  0
    1.3970   -6.7341   28.8657 H   0  0  0  0  0  0  0  0  0  0  0  0
    2.8775   -4.1647   28.6328 H   0  0  0  0  0  0  0  0  0  0  0  0
    3.4515   -5.7658   29.0508 H   0  0  0  0  0  0  0  0  0  0  0  0
    0.3776   -6.5741   31.3462 H   0  0  0  0  0  0  0  0  0  0  0  0
   -0.4953   -5.1449   31.7728 H   0  0  0  0  0  0  0  0  0  0  0  0
    4.0976   -3.2001   34.2778 H   0  0  0  0  0  0  0  0  0  0  0  0
    5.1120   -2.8887   33.0442 H   0  0  0  0  0  0  0  0  0  0  0  0
    4.0235   -3.2332   30.5844 H   0  0  0  0  0  0  0  0  0  0  0  0
  1  2  1  0
  2  3  1  0
  3  4  1  0
  4  5  1  0
  5  6  1  0
  6  7  1  0
  7  8  1  0
  7  9  1  0
  9 10  1  0
 10 11  1  0
 11 12  2  0
 12 13  1  0
 12 14  1  0
 14 15  1  0
 15 16  1  0
 15 17  1  0
  6  2  1  0
 13  7  1  0
 17 11  1  0
  1 18  1  0
  1 19  1  0
  1 20  1  0
  2 21  1  0
  3 22  1  0
  3 23  1  0
  4 24  1  0
  4 25  1  0
  6 26  1  0
  8 27  1  0
  9 28  1  0
  9 29  1  0
 10 30  1  0
 10 31  1  0
 13 32  1  0
 13 33  1  0
 16 34  1  0
 16 35  1  0
 17 36  1  0
M  END
>  <Energy>  (862) 
46.14867550293819

>  <compound_id>  (862) 
2155

>  <target_id>  (862) 
1

>  <reference_id>  (862) 
40

>  <inspiration_ids>  (862) 
[40, 135]

>  <energy_score>  (862) 
-36.88168032162366

>  <distance_score>  (862) 
2.346311069479018

>  <path>  (862) 
/opt/xchem-fragalysis-2/maxwin/BulkDock/SCRATCH/505732/C2155-P40/C2155-P40.minimised.mol

>  <scratch_subdir>  (862) 
/opt/xchem-fragalysis-2/maxwin/BulkDock/SCRATCH/505732/C2155-P40

>  <fragmenstein_runtime>  (862) 
2.14479398727417

>  <fragmenstein_outcome>  (862) 
too moved

>  <fragmenstein_mode>  (862) 
expansion

>  <fragmenstein_error>  (862) 


$$$$
C2155-P135
     RDKit          3D

 36 38  0  0  0  0  0  0  0  0999 V2000
   -1.2578   -1.1754   32.4856 C   0  0  0  0  0  0  0  0  0  0  0  0
   -0.6900   -1.1378   31.0842 C   0  0  0  0  0  0  0  0  0  0  0  0
    0.7079   -0.5574   31.0109 C   0  0  0  0  0  0  0  0  0  0  0  0
    1.1035   -0.9161   29.6007 C   0  0  0  0  0  0  0  0  0  0  0  0
    0.5603   -2.2210   29.3808 O   0  0  0  0  0  0  0  0  0  0  0  0
   -0.5788   -2.4224   30.2448 C   0  0  0  0  0  0  0  0  0  0  0  0
   -0.5843   -3.8569   30.8946 C   0  0  0  0  0  0  0  0  0  0  0  0
   -1.9048   -4.0658   31.4508 O   0  0  0  0  0  0  0  0  0  0  0  0
   -0.3145   -4.9273   29.7897 C   0  0  0  0  0  0  0  0  0  0  0  0
    1.1282   -5.0440   29.2805 C   0  0  0  0  0  0  0  0  0  0  0  0
    2.1029   -4.6932   30.3211 C   0  0  0  0  0  0  0  0  0  0  0  0
    1.7545   -4.3816   31.5746 C   0  0  0  0  0  0  0  0  0  0  0  0
    0.3786   -4.1889   32.0473 C   0  0  0  0  0  0  0  0  0  0  0  0
    3.1269   -3.8342   32.4466 S   0  0  0  0  0  0  0  0  0  0  0  0
    3.9724   -3.6218   31.0144 N   0  0  0  0  0  0  0  0  0  0  0  0
    5.3365   -3.8911   31.1783 N   0  0  0  0  0  0  0  0  0  0  0  0
    3.4348   -4.4706   30.0359 N   0  0  0  0  0  0  0  0  0  0  0  0
   -2.2636   -1.6047   32.4928 H   0  0  0  0  0  0  0  0  0  0  0  0
   -1.3503   -0.1531   32.8720 H   0  0  0  0  0  0  0  0  0  0  0  0
   -0.6317   -1.7126   33.1969 H   0  0  0  0  0  0  0  0  0  0  0  0
   -1.3409   -0.4544   30.5159 H   0  0  0  0  0  0  0  0  0  0  0  0
    1.3675   -1.0557   31.7300 H   0  0  0  0  0  0  0  0  0  0  0  0
    0.7444    0.5199   31.1957 H   0  0  0  0  0  0  0  0  0  0  0  0
    2.1870   -0.9381   29.4569 H   0  0  0  0  0  0  0  0  0  0  0  0
    0.6620   -0.2318   28.8680 H   0  0  0  0  0  0  0  0  0  0  0  0
   -1.4531   -2.4114   29.5768 H   0  0  0  0  0  0  0  0  0  0  0  0
   -1.9021   -3.6800   32.3499 H   0  0  0  0  0  0  0  0  0  0  0  0
   -0.6106   -5.9125   30.1763 H   0  0  0  0  0  0  0  0  0  0  0  0
   -0.9581   -4.7074   28.9339 H   0  0  0  0  0  0  0  0  0  0  0  0
    1.2739   -4.4045   28.4034 H   0  0  0  0  0  0  0  0  0  0  0  0
    1.3471   -6.0731   28.9855 H   0  0  0  0  0  0  0  0  0  0  0  0
    0.0516   -5.1064   32.5571 H   0  0  0  0  0  0  0  0  0  0  0  0
    0.3408   -3.4172   32.8164 H   0  0  0  0  0  0  0  0  0  0  0  0
    5.4390   -4.8075   31.6064 H   0  0  0  0  0  0  0  0  0  0  0  0
    5.7212   -3.2333   31.8550 H   0  0  0  0  0  0  0  0  0  0  0  0
    3.5922   -4.1220   29.0913 H   0  0  0  0  0  0  0  0  0  0  0  0
  1  2  1  0
  2  3  1  0
  3  4  1  0
  4  5  1  0
  5  6  1  0
  6  7  1  0
  7  8  1  0
  7  9  1  0
  9 10  1  0
 10 11  1  0
 11 12  2  0
 12 13  1  0
 12 14  1  0
 14 15  1  0
 15 16  1  0
 15 17  1  0
  6  2  1  0
 13  7  1  0
 17 11  1  0
  1 18  1  0
  1 19  1  0
  1 20  1  0
  2 21  1  0
  3 22  1  0
  3 23  1  0
  4 24  1  0
  4 25  1  0
  6 26  1  0
  8 27  1  0
  9 28  1  0
  9 29  1  0
 10 30  1  0
 10 31  1  0
 13 32  1  0
 13 33  1  0
 16 34  1  0
 16 35  1  0
 17 36  1  0
M  END
>  <Energy>  (863) 
37.201387015954914

>  <compound_id>  (863) 
2155

>  <target_id>  (863) 
1

>  <reference_id>  (863) 
135

>  <inspiration_ids>  (863) 
[40, 135]

>  <energy_score>  (863) 
-45.828968808607556

>  <distance_score>  (863) 
2.4105561381057035

>  <path>  (863) 
/opt/xchem-fragalysis-2/maxwin/BulkDock/SCRATCH/505732/C2155-P135/C2155-P135.minimised.mol

>  <scratch_subdir>  (863) 
/opt/xchem-fragalysis-2/maxwin/BulkDock/SCRATCH/505732/C2155-P135

>  <fragmenstein_runtime>  (863) 
2.1415252685546875

>  <fragmenstein_outcome>  (863) 
too moved

>  <fragmenstein_mode>  (863) 
expansion

>  <fragmenstein_error>  (863) 


$$$$
C2156-P40
     RDKit          3D

 28 30  0  0  0  0  0  0  0  0999 V2000
    0.3488   -7.5255   35.0570 C   0  0  0  0  0  0  0  0  0  0  0  0
   -0.4354   -6.2117   35.0772 C   0  0  0  0  0  0  0  0  0  0  0  0
    0.2128   -5.2356   36.0446 C   0  0  0  0  0  0  0  0  0  0  0  0
    1.3240   -4.6208   35.2102 C   0  0  0  0  0  0  0  0  0  0  0  0
    0.9757   -4.8228   33.8278 O   0  0  0  0  0  0  0  0  0  0  0  0
   -0.3372   -5.3990   33.7863 C   0  0  0  0  0  0  0  0  0  0  0  0
   -0.6017   -6.1597   32.4911 C   0  0  0  0  0  0  0  0  0  0  0  0
   -1.2825   -7.1826   32.4406 O   0  0  0  0  0  0  0  0  0  0  0  0
   -0.0150   -5.6630   31.2339 C   0  0  0  0  0  0  0  0  0  0  0  0
    0.3283   -6.5953   30.2633 C   0  0  0  0  0  0  0  0  0  0  0  0
    0.9775   -6.3106   29.1121 N   0  0  0  0  0  0  0  0  0  0  0  0
    1.3085   -5.0208   28.8544 C   0  0  0  0  0  0  0  0  0  0  0  0
    0.9422   -3.9935   29.7298 C   0  0  0  0  0  0  0  0  0  0  0  0
    1.2056   -2.6415   29.5529 N   0  0  0  0  0  0  0  0  0  0  0  0
    0.7165   -1.9127   30.5365 N   0  0  0  0  0  0  0  0  0  0  0  0
   -0.0898   -2.8170   31.6731 S   0  0  0  0  0  0  0  0  0  0  0  0
    0.2610   -4.3285   30.9108 C   0  0  0  0  0  0  0  0  0  0  0  0
   -0.0974   -8.2352   34.3591 H   0  0  0  0  0  0  0  0  0  0  0  0
    0.3399   -7.9917   36.0482 H   0  0  0  0  0  0  0  0  0  0  0  0
    1.3936   -7.3844   34.7621 H   0  0  0  0  0  0  0  0  0  0  0  0
   -1.4749   -6.4235   35.3449 H   0  0  0  0  0  0  0  0  0  0  0  0
   -0.5091   -4.4571   36.3216 H   0  0  0  0  0  0  0  0  0  0  0  0
    0.5804   -5.6864   36.9710 H   0  0  0  0  0  0  0  0  0  0  0  0
    1.4398   -3.5502   35.4032 H   0  0  0  0  0  0  0  0  0  0  0  0
    2.2852   -5.1129   35.3887 H   0  0  0  0  0  0  0  0  0  0  0  0
   -1.0610   -4.5776   33.8279 H   0  0  0  0  0  0  0  0  0  0  0  0
    0.1168   -7.6557   30.4072 H   0  0  0  0  0  0  0  0  0  0  0  0
    1.8470   -4.8266   27.9344 H   0  0  0  0  0  0  0  0  0  0  0  0
  1  2  1  0
  2  3  1  0
  3  4  1  0
  4  5  1  0
  5  6  1  0
  6  7  1  0
  7  8  2  0
  7  9  1  0
  9 10  2  0
 10 11  1  0
 11 12  2  0
 12 13  1  0
 13 14  1  0
 14 15  2  0
 15 16  1  0
 16 17  1  0
  6  2  1  0
 17  9  1  0
 17 13  2  0
  1 18  1  0
  1 19  1  0
  1 20  1  0
  2 21  1  0
  3 22  1  0
  3 23  1  0
  4 24  1  0
  4 25  1  0
  6 26  1  0
 10 27  1  0
 12 28  1  0
M  END
>  <Energy>  (864) 
60.714568311526577

>  <compound_id>  (864) 
2156

>  <target_id>  (864) 
1

>  <reference_id>  (864) 
40

>  <inspiration_ids>  (864) 
[40, 136]

>  <energy_score>  (864) 
-71.97328325783963

>  <distance_score>  (864) 
1.2530385198888385

>  <path>  (864) 
/opt/xchem-fragalysis-2/maxwin/BulkDock/SCRATCH/505732/C2156-P40/C2156-P40.minimised.mol

>  <scratch_subdir>  (864) 
/opt/xchem-fragalysis-2/maxwin/BulkDock/SCRATCH/505732/C2156-P40

>  <fragmenstein_runtime>  (864) 
1.3040745258331299

>  <fragmenstein_outcome>  (864) 
too moved

>  <fragmenstein_mode>  (864) 
expansion

>  <fragmenstein_error>  (864) 


$$$$
C2156-P136
     RDKit          3D

 28 30  0  0  0  0  0  0  0  0999 V2000
    0.0254   -7.3263   35.2929 C   0  0  0  0  0  0  0  0  0  0  0  0
   -0.7142   -5.9927   35.2178 C   0  0  0  0  0  0  0  0  0  0  0  0
   -0.1082   -4.9986   36.1933 C   0  0  0  0  0  0  0  0  0  0  0  0
    1.0676   -4.4377   35.4157 C   0  0  0  0  0  0  0  0  0  0  0  0
    0.7813   -4.6290   34.0191 O   0  0  0  0  0  0  0  0  0  0  0  0
   -0.5207   -5.2291   33.9083 C   0  0  0  0  0  0  0  0  0  0  0  0
   -0.6501   -6.0240   32.6119 C   0  0  0  0  0  0  0  0  0  0  0  0
   -1.2848   -7.0715   32.5110 O   0  0  0  0  0  0  0  0  0  0  0  0
    0.0483   -5.5240   31.4168 C   0  0  0  0  0  0  0  0  0  0  0  0
    0.6316   -6.4532   30.5720 C   0  0  0  0  0  0  0  0  0  0  0  0
    1.4322   -6.1500   29.5253 N   0  0  0  0  0  0  0  0  0  0  0  0
    1.6511   -4.8445   29.2295 C   0  0  0  0  0  0  0  0  0  0  0  0
    1.0522   -3.8268   29.9777 C   0  0  0  0  0  0  0  0  0  0  0  0
    1.2017   -2.4631   29.7637 N   0  0  0  0  0  0  0  0  0  0  0  0
    0.5141   -1.7514   30.6347 N   0  0  0  0  0  0  0  0  0  0  0  0
   -0.3512   -2.6895   31.7000 S   0  0  0  0  0  0  0  0  0  0  0  0
    0.2413   -4.1833   31.0661 C   0  0  0  0  0  0  0  0  0  0  0  0
   -0.4642   -8.0653   34.6570 H   0  0  0  0  0  0  0  0  0  0  0  0
    0.0095   -7.7185   36.3154 H   0  0  0  0  0  0  0  0  0  0  0  0
    1.0701   -7.2469   34.9757 H   0  0  0  0  0  0  0  0  0  0  0  0
   -1.7708   -6.1728   35.4322 H   0  0  0  0  0  0  0  0  0  0  0  0
   -0.8293   -4.1961   36.3937 H   0  0  0  0  0  0  0  0  0  0  0  0
    0.1862   -5.4239   37.1571 H   0  0  0  0  0  0  0  0  0  0  0  0
    1.2239   -3.3731   35.6129 H   0  0  0  0  0  0  0  0  0  0  0  0
    1.9948   -4.9732   35.6432 H   0  0  0  0  0  0  0  0  0  0  0  0
   -1.2521   -4.4158   33.8633 H   0  0  0  0  0  0  0  0  0  0  0  0
    0.4942   -7.5206   30.7414 H   0  0  0  0  0  0  0  0  0  0  0  0
    2.2976   -4.6330   28.3858 H   0  0  0  0  0  0  0  0  0  0  0  0
  1  2  1  0
  2  3  1  0
  3  4  1  0
  4  5  1  0
  5  6  1  0
  6  7  1  0
  7  8  2  0
  7  9  1  0
  9 10  2  0
 10 11  1  0
 11 12  2  0
 12 13  1  0
 13 14  1  0
 14 15  2  0
 15 16  1  0
 16 17  1  0
  6  2  1  0
 17  9  1  0
 17 13  2  0
  1 18  1  0
  1 19  1  0
  1 20  1  0
  2 21  1  0
  3 22  1  0
  3 23  1  0
  4 24  1  0
  4 25  1  0
  6 26  1  0
 10 27  1  0
 12 28  1  0
M  END
>  <Energy>  (865) 
60.740301824471892

>  <compound_id>  (865) 
2156

>  <target_id>  (865) 
1

>  <reference_id>  (865) 
136

>  <inspiration_ids>  (865) 
[40, 136]

>  <energy_score>  (865) 
-71.94754974489553

>  <distance_score>  (865) 
1.3673876769776498

>  <path>  (865) 
/opt/xchem-fragalysis-2/maxwin/BulkDock/SCRATCH/505732/C2156-P136/C2156-P136.minimised.mol

>  <scratch_subdir>  (865) 
/opt/xchem-fragalysis-2/maxwin/BulkDock/SCRATCH/505732/C2156-P136

>  <fragmenstein_runtime>  (865) 
1.3136570453643799

>  <fragmenstein_outcome>  (865) 
too moved

>  <fragmenstein_mode>  (865) 
expansion

>  <fragmenstein_error>  (865) 


$$$$
C2160-P40
     RDKit          3D

 45 47  0  0  0  0  0  0  0  0999 V2000
    0.4456    2.2719   28.4827 C   0  0  0  0  0  0  0  0  0  0  0  0
   -0.1266    1.1720   27.5845 C   0  0  0  0  0  0  0  0  0  0  0  0
   -1.6431    1.1259   27.7074 C   0  0  0  0  0  0  0  0  0  0  0  0
   -1.8819    0.0752   28.7848 C   0  0  0  0  0  0  0  0  0  0  0  0
   -0.5977   -0.4156   29.1923 O   0  0  0  0  0  0  0  0  0  0  0  0
    0.2280   -0.2469   28.0431 C   0  0  0  0  0  0  0  0  0  0  0  0
    1.7519   -0.5548   28.1347 C   0  0  0  0  0  0  0  0  0  0  0  0
    2.5382   -0.0535   27.6858 O   0  0  0  0  0  0  0  0  0  0  0  0
    1.4039   -2.1395   29.2215 N   0  0  0  0  0  0  0  0  0  0  0  0
    1.8799   -3.7142   30.2911 C   0  0  0  0  0  0  0  0  0  0  0  0
    2.7046   -4.2658   30.5612 O   0  0  0  0  0  0  0  0  0  0  0  0
    0.4255   -3.8922   30.6566 N   0  0  0  0  0  0  0  0  0  0  0  0
    0.1083   -3.1062   31.9018 C   0  0  0  0  0  0  0  0  0  0  0  0
   -0.2244   -5.0059   31.4308 C   0  0  0  0  0  0  0  0  0  0  0  0
    0.2921   -5.7174   32.6787 C   0  0  0  0  0  0  0  0  0  0  0  0
    1.5573   -5.5608   33.2538 C   0  0  0  0  0  0  0  0  0  0  0  0
    1.8999   -6.2318   34.4333 C   0  0  0  0  0  0  0  0  0  0  0  0
    1.0020   -7.1082   35.0331 C   0  0  0  0  0  0  0  0  0  0  0  0
   -0.2378   -7.3239   34.4475 C   0  0  0  0  0  0  0  0  0  0  0  0
   -0.5838   -6.6419   33.2812 C   0  0  0  0  0  0  0  0  0  0  0  0
    2.8490   -2.3198   28.8737 C   0  0  0  0  0  0  0  0  0  0  0  0
    3.4351   -3.0303   27.8414 C   0  0  0  0  0  0  0  0  0  0  0  0
    4.8196   -3.0304   27.8490 N   0  0  0  0  0  0  0  0  0  0  0  0
    5.3041   -2.3324   28.8652 N   0  0  0  0  0  0  0  0  0  0  0  0
    4.1132   -1.6421   29.8318 S   0  0  0  0  0  0  0  0  0  0  0  0
    0.1908    2.1180   29.5364 H   0  0  0  0  0  0  0  0  0  0  0  0
    0.0569    3.2515   28.1837 H   0  0  0  0  0  0  0  0  0  0  0  0
    1.5362    2.3141   28.4049 H   0  0  0  0  0  0  0  0  0  0  0  0
    0.1890    1.3728   26.5603 H   0  0  0  0  0  0  0  0  0  0  0  0
   -2.0985    0.7924   26.7669 H   0  0  0  0  0  0  0  0  0  0  0  0
   -2.0989    2.0888   27.9572 H   0  0  0  0  0  0  0  0  0  0  0  0
   -2.4008    0.4598   29.6619 H   0  0  0  0  0  0  0  0  0  0  0  0
   -2.4477   -0.7691   28.3808 H   0  0  0  0  0  0  0  0  0  0  0  0
   -0.1340   -0.9631   27.2959 H   0  0  0  0  0  0  0  0  0  0  0  0
    0.3108   -2.0628   31.6153 H   0  0  0  0  0  0  0  0  0  0  0  0
   -0.9502   -3.0598   32.2010 H   0  0  0  0  0  0  0  0  0  0  0  0
    0.8050   -3.2406   32.7340 H   0  0  0  0  0  0  0  0  0  0  0  0
   -1.3102   -4.8410   31.4919 H   0  0  0  0  0  0  0  0  0  0  0  0
   -0.1567   -5.8123   30.6811 H   0  0  0  0  0  0  0  0  0  0  0  0
    2.3021   -4.9000   32.8203 H   0  0  0  0  0  0  0  0  0  0  0  0
    2.8776   -6.0654   34.8810 H   0  0  0  0  0  0  0  0  0  0  0  0
    1.2702   -7.6260   35.9503 H   0  0  0  0  0  0  0  0  0  0  0  0
   -0.9358   -8.0242   34.8991 H   0  0  0  0  0  0  0  0  0  0  0  0
   -1.5578   -6.8414   32.8428 H   0  0  0  0  0  0  0  0  0  0  0  0
    2.9166   -3.5785   27.0712 H   0  0  0  0  0  0  0  0  0  0  0  0
  1  2  1  0
  2  3  1  0
  3  4  1  0
  4  5  1  0
  5  6  1  0
  6  7  1  0
  7  8  2  0
  7  9  1  0
  9 10  1  0
 10 11  2  0
 10 12  1  0
 12 13  1  0
 12 14  1  0
 14 15  1  0
 15 16  2  0
 16 17  1  0
 17 18  2  0
 18 19  1  0
 19 20  2  0
  9 21  1  0
 21 22  2  0
 22 23  1  0
 23 24  2  0
 24 25  1  0
  6  2  1  0
 20 15  1  0
 25 21  1  0
  1 26  1  0
  1 27  1  0
  1 28  1  0
  2 29  1  0
  3 30  1  0
  3 31  1  0
  4 32  1  0
  4 33  1  0
  6 34  1  0
 13 35  1  0
 13 36  1  0
 13 37  1  0
 14 38  1  0
 14 39  1  0
 16 40  1  0
 17 41  1  0
 18 42  1  0
 19 43  1  0
 20 44  1  0
 22 45  1  0
M  END
>  <Energy>  (866) 
430.98701900521581

>  <compound_id>  (866) 
2160

>  <target_id>  (866) 
1

>  <reference_id>  (866) 
40

>  <inspiration_ids>  (866) 
[40, 147]

>  <energy_score>  (866) 
290.8122080595067

>  <distance_score>  (866) 
2.752064358703968

>  <path>  (866) 
/opt/xchem-fragalysis-2/maxwin/BulkDock/SCRATCH/505732/C2160-P40/C2160-P40.minimised.mol

>  <scratch_subdir>  (866) 
/opt/xchem-fragalysis-2/maxwin/BulkDock/SCRATCH/505732/C2160-P40

>  <fragmenstein_runtime>  (866) 
14.965609788894653

>  <fragmenstein_outcome>  (866) 
too moved

>  <fragmenstein_mode>  (866) 
expansion

>  <fragmenstein_error>  (866) 


$$$$
C2160-P147
     RDKit          3D

 45 47  0  0  0  0  0  0  0  0999 V2000
    0.9878    3.3757   29.0334 C   0  0  0  0  0  0  0  0  0  0  0  0
    0.5618    2.1258   28.2774 C   0  0  0  0  0  0  0  0  0  0  0  0
   -0.8104    2.2842   27.6457 C   0  0  0  0  0  0  0  0  0  0  0  0
   -1.3708    0.8920   27.7490 C   0  0  0  0  0  0  0  0  0  0  0  0
   -0.9308    0.4281   29.0323 O   0  0  0  0  0  0  0  0  0  0  0  0
    0.4275    0.8841   29.1907 C   0  0  0  0  0  0  0  0  0  0  0  0
    1.4170   -0.2567   28.7663 C   0  0  0  0  0  0  0  0  0  0  0  0
    2.0387   -0.2742   27.9388 O   0  0  0  0  0  0  0  0  0  0  0  0
    0.8516   -1.3992   30.2456 N   0  0  0  0  0  0  0  0  0  0  0  0
    0.8815   -2.9989   31.3832 C   0  0  0  0  0  0  0  0  0  0  0  0
    1.3218   -3.9267   31.4285 O   0  0  0  0  0  0  0  0  0  0  0  0
   -0.1736   -2.3782   32.2644 N   0  0  0  0  0  0  0  0  0  0  0  0
    0.4741   -1.6350   33.3881 C   0  0  0  0  0  0  0  0  0  0  0  0
   -0.9572   -3.0048   33.3945 C   0  0  0  0  0  0  0  0  0  0  0  0
   -0.5444   -4.3927   33.8711 C   0  0  0  0  0  0  0  0  0  0  0  0
   -0.1560   -4.5941   35.2026 C   0  0  0  0  0  0  0  0  0  0  0  0
    0.0806   -5.8825   35.6858 C   0  0  0  0  0  0  0  0  0  0  0  0
   -0.0707   -6.9837   34.8464 C   0  0  0  0  0  0  0  0  0  0  0  0
   -0.4320   -6.8002   33.5145 C   0  0  0  0  0  0  0  0  0  0  0  0
   -0.6625   -5.5127   33.0292 C   0  0  0  0  0  0  0  0  0  0  0  0
    1.6490   -2.3545   29.4101 C   0  0  0  0  0  0  0  0  0  0  0  0
    1.2040   -3.3522   28.5642 C   0  0  0  0  0  0  0  0  0  0  0  0
    2.2052   -4.1389   28.0135 N   0  0  0  0  0  0  0  0  0  0  0  0
    3.4056   -3.7832   28.4441 N   0  0  0  0  0  0  0  0  0  0  0  0
    3.3657   -2.5020   29.5348 S   0  0  0  0  0  0  0  0  0  0  0  0
    1.9843    3.2411   29.4667 H   0  0  0  0  0  0  0  0  0  0  0  0
    0.2956    3.6080   29.8493 H   0  0  0  0  0  0  0  0  0  0  0  0
    1.0237    4.2410   28.3633 H   0  0  0  0  0  0  0  0  0  0  0  0
    1.2996    1.9588   27.4838 H   0  0  0  0  0  0  0  0  0  0  0  0
   -0.7709    2.6476   26.6149 H   0  0  0  0  0  0  0  0  0  0  0  0
   -1.4305    2.9766   28.2272 H   0  0  0  0  0  0  0  0  0  0  0  0
   -2.4555    0.8841   27.6835 H   0  0  0  0  0  0  0  0  0  0  0  0
   -0.9708    0.2257   26.9817 H   0  0  0  0  0  0  0  0  0  0  0  0
    0.6015    1.1262   30.2447 H   0  0  0  0  0  0  0  0  0  0  0  0
    1.0476   -2.2550   34.0920 H   0  0  0  0  0  0  0  0  0  0  0  0
    1.2546   -1.0179   32.9180 H   0  0  0  0  0  0  0  0  0  0  0  0
   -0.1806   -0.8874   33.8599 H   0  0  0  0  0  0  0  0  0  0  0  0
   -1.3533   -2.3722   34.2099 H   0  0  0  0  0  0  0  0  0  0  0  0
   -1.9036   -3.2047   32.8644 H   0  0  0  0  0  0  0  0  0  0  0  0
   -0.0707   -3.7533   35.8868 H   0  0  0  0  0  0  0  0  0  0  0  0
    0.3661   -6.0280   36.7249 H   0  0  0  0  0  0  0  0  0  0  0  0
    0.0896   -7.9848   35.2355 H   0  0  0  0  0  0  0  0  0  0  0  0
   -0.5452   -7.6572   32.8569 H   0  0  0  0  0  0  0  0  0  0  0  0
   -0.9523   -5.3833   31.9895 H   0  0  0  0  0  0  0  0  0  0  0  0
    0.1672   -3.5574   28.3331 H   0  0  0  0  0  0  0  0  0  0  0  0
  1  2  1  0
  2  3  1  0
  3  4  1  0
  4  5  1  0
  5  6  1  0
  6  7  1  0
  7  8  2  0
  7  9  1  0
  9 10  1  0
 10 11  2  0
 10 12  1  0
 12 13  1  0
 12 14  1  0
 14 15  1  0
 15 16  2  0
 16 17  1  0
 17 18  2  0
 18 19  1  0
 19 20  2  0
  9 21  1  0
 21 22  2  0
 22 23  1  0
 23 24  2  0
 24 25  1  0
  6  2  1  0
 20 15  1  0
 25 21  1  0
  1 26  1  0
  1 27  1  0
  1 28  1  0
  2 29  1  0
  3 30  1  0
  3 31  1  0
  4 32  1  0
  4 33  1  0
  6 34  1  0
 13 35  1  0
 13 36  1  0
 13 37  1  0
 14 38  1  0
 14 39  1  0
 16 40  1  0
 17 41  1  0
 18 42  1  0
 19 43  1  0
 20 44  1  0
 22 45  1  0
M  END
>  <Energy>  (867) 
425.67862954207874

>  <compound_id>  (867) 
2160

>  <target_id>  (867) 
1

>  <reference_id>  (867) 
147

>  <inspiration_ids>  (867) 
[40, 147]

>  <energy_score>  (867) 
285.5038185963681

>  <distance_score>  (867) 
2.654844008110034

>  <path>  (867) 
/opt/xchem-fragalysis-2/maxwin/BulkDock/SCRATCH/505732/C2160-P147/C2160-P147.minimised.mol

>  <scratch_subdir>  (867) 
/opt/xchem-fragalysis-2/maxwin/BulkDock/SCRATCH/505732/C2160-P147

>  <fragmenstein_runtime>  (867) 
34.87915396690369

>  <fragmenstein_outcome>  (867) 
too moved

>  <fragmenstein_mode>  (867) 
expansion

>  <fragmenstein_error>  (867) 


$$$$
C2162-P40
     RDKit          3D

 56 59  0  0  0  0  0  0  0  0999 V2000
    1.8890   -1.5065   36.0259 C   0  0  0  0  0  0  0  0  0  0  0  0
    0.5866   -1.8724   35.3072 C   0  0  0  0  0  0  0  0  0  0  0  0
   -0.2845   -0.6406   35.1386 C   0  0  0  0  0  0  0  0  0  0  0  0
   -1.0331   -0.5792   36.4515 C   0  0  0  0  0  0  0  0  0  0  0  0
   -1.1833   -1.9290   36.9028 O   0  0  0  0  0  0  0  0  0  0  0  0
   -0.3502   -2.7912   36.1030 C   0  0  0  0  0  0  0  0  0  0  0  0
    0.4033   -3.8381   36.9777 C   0  0  0  0  0  0  0  0  0  0  0  0
    0.6778   -3.7490   37.9715 O   0  0  0  0  0  0  0  0  0  0  0  0
    0.5224   -5.1009   35.4939 N   0  0  0  0  0  0  0  0  0  0  0  0
    0.9386   -6.8151   34.6338 C   0  0  0  0  0  0  0  0  0  0  0  0
    1.3888   -7.7119   34.8459 O   0  0  0  0  0  0  0  0  0  0  0  0
    0.2563   -6.3302   33.3457 N   0  0  0  0  0  0  0  0  0  0  0  0
   -0.0234   -7.1010   32.1035 C   0  0  0  0  0  0  0  0  0  0  0  0
   -0.6051   -6.5688   30.8177 C   0  0  0  0  0  0  0  0  0  0  0  0
    0.4716   -5.7936   30.1054 C   0  0  0  0  0  0  0  0  0  0  0  0
    0.9826   -4.8081   31.1444 C   0  0  0  0  0  0  0  0  0  0  0  0
   -0.0183   -3.6756   31.2369 C   0  0  0  0  0  0  0  0  0  0  0  0
   -0.8142   -3.4973   32.3632 C   0  0  0  0  0  0  0  0  0  0  0  0
   -1.9343   -2.6868   32.3119 C   0  0  0  0  0  0  0  0  0  0  0  0
   -2.3105   -2.0762   31.1195 C   0  0  0  0  0  0  0  0  0  0  0  0
   -3.6499   -1.4196   31.0358 C   0  0  0  0  0  0  0  0  0  0  0  0
   -4.6234   -2.3438   31.5226 O   0  0  0  0  0  0  0  0  0  0  0  0
   -1.4500   -2.1353   30.0244 C   0  0  0  0  0  0  0  0  0  0  0  0
   -0.2941   -2.9078   30.0928 C   0  0  0  0  0  0  0  0  0  0  0  0
    1.2826   -5.6241   32.4466 C   0  0  0  0  0  0  0  0  0  0  0  0
    1.3888   -5.7591   36.5254 C   0  0  0  0  0  0  0  0  0  0  0  0
    1.1399   -6.6494   37.5569 C   0  0  0  0  0  0  0  0  0  0  0  0
    2.2792   -7.1236   38.1930 N   0  0  0  0  0  0  0  0  0  0  0  0
    3.3864   -6.6051   37.6816 N   0  0  0  0  0  0  0  0  0  0  0  0
    3.0973   -5.5138   36.4417 S   0  0  0  0  0  0  0  0  0  0  0  0
    1.7126   -1.1299   37.0386 H   0  0  0  0  0  0  0  0  0  0  0  0
    2.5519   -2.3733   36.0983 H   0  0  0  0  0  0  0  0  0  0  0  0
    2.4294   -0.7331   35.4691 H   0  0  0  0  0  0  0  0  0  0  0  0
    0.8547   -2.3115   34.3420 H   0  0  0  0  0  0  0  0  0  0  0  0
    0.2636    0.2805   34.9206 H   0  0  0  0  0  0  0  0  0  0  0  0
   -0.9979   -0.8024   34.3236 H   0  0  0  0  0  0  0  0  0  0  0  0
   -2.0180   -0.1150   36.3484 H   0  0  0  0  0  0  0  0  0  0  0  0
   -0.4697   -0.0284   37.2118 H   0  0  0  0  0  0  0  0  0  0  0  0
   -1.0490   -3.3097   35.4399 H   0  0  0  0  0  0  0  0  0  0  0  0
   -0.8046   -7.7833   32.4772 H   0  0  0  0  0  0  0  0  0  0  0  0
    0.7684   -7.8075   31.8986 H   0  0  0  0  0  0  0  0  0  0  0  0
   -0.9535   -7.3875   30.1805 H   0  0  0  0  0  0  0  0  0  0  0  0
   -1.4600   -5.9544   31.0782 H   0  0  0  0  0  0  0  0  0  0  0  0
    0.0869   -5.3187   29.2017 H   0  0  0  0  0  0  0  0  0  0  0  0
    1.2757   -6.4621   29.7816 H   0  0  0  0  0  0  0  0  0  0  0  0
    1.9306   -4.3756   30.7977 H   0  0  0  0  0  0  0  0  0  0  0  0
   -0.6515   -4.0465   33.2803 H   0  0  0  0  0  0  0  0  0  0  0  0
   -2.5758   -2.6020   33.1875 H   0  0  0  0  0  0  0  0  0  0  0  0
   -3.9087   -1.1620   30.0040 H   0  0  0  0  0  0  0  0  0  0  0  0
   -3.6718   -0.5140   31.6505 H   0  0  0  0  0  0  0  0  0  0  0  0
   -5.4819   -1.8939   31.4402 H   0  0  0  0  0  0  0  0  0  0  0  0
   -1.7059   -1.6435   29.0867 H   0  0  0  0  0  0  0  0  0  0  0  0
    0.3222   -2.9888   29.1992 H   0  0  0  0  0  0  0  0  0  0  0  0
    2.1410   -6.2792   32.3038 H   0  0  0  0  0  0  0  0  0  0  0  0
    1.7105   -4.8719   33.1290 H   0  0  0  0  0  0  0  0  0  0  0  0
    0.1712   -7.0111   37.8711 H   0  0  0  0  0  0  0  0  0  0  0  0
  1  2  1  0
  2  3  1  0
  3  4  1  0
  4  5  1  0
  5  6  1  0
  6  7  1  0
  7  8  2  0
  7  9  1  0
  9 10  1  0
 10 11  2  0
 10 12  1  0
 12 13  1  0
 13 14  1  0
 14 15  1  0
 15 16  1  0
 16 17  1  0
 17 18  2  0
 18 19  1  0
 19 20  2  0
 20 21  1  0
 21 22  1  0
 20 23  1  0
 23 24  2  0
 16 25  1  0
  9 26  1  0
 26 27  2  0
 27 28  1  0
 28 29  2  0
 29 30  1  0
  6  2  1  0
 25 12  1  0
 30 26  1  0
 24 17  1  0
  1 31  1  0
  1 32  1  0
  1 33  1  0
  2 34  1  0
  3 35  1  0
  3 36  1  0
  4 37  1  0
  4 38  1  0
  6 39  1  0
 13 40  1  0
 13 41  1  0
 14 42  1  0
 14 43  1  0
 15 44  1  0
 15 45  1  0
 16 46  1  0
 18 47  1  0
 19 48  1  0
 21 49  1  0
 21 50  1  0
 22 51  1  0
 23 52  1  0
 24 53  1  0
 25 54  1  0
 25 55  1  0
 27 56  1  0
M  END
>  <Energy>  (868) 
450.86031817015862

>  <compound_id>  (868) 
2162

>  <target_id>  (868) 
1

>  <reference_id>  (868) 
40

>  <inspiration_ids>  (868) 
[40, 149]

>  <energy_score>  (868) 
243.65874738061086

>  <distance_score>  (868) 
4.136655498624277

>  <path>  (868) 
/opt/xchem-fragalysis-2/maxwin/BulkDock/SCRATCH/505732/C2162-P40/C2162-P40.minimised.mol

>  <scratch_subdir>  (868) 
/opt/xchem-fragalysis-2/maxwin/BulkDock/SCRATCH/505732/C2162-P40

>  <fragmenstein_runtime>  (868) 
6.841993093490601

>  <fragmenstein_outcome>  (868) 
too moved

>  <fragmenstein_mode>  (868) 
expansion

>  <fragmenstein_error>  (868) 


$$$$
C2162-P149
     RDKit          3D

 56 59  0  0  0  0  0  0  0  0999 V2000
    1.0897   -4.0910   35.7458 C   0  0  0  0  0  0  0  0  0  0  0  0
    0.9125   -5.5757   35.4773 C   0  0  0  0  0  0  0  0  0  0  0  0
    0.8768   -6.4273   36.7244 C   0  0  0  0  0  0  0  0  0  0  0  0
    1.1401   -7.8070   36.1607 C   0  0  0  0  0  0  0  0  0  0  0  0
    1.8109   -7.6759   34.8829 O   0  0  0  0  0  0  0  0  0  0  0  0
    1.9842   -6.2687   34.6212 C   0  0  0  0  0  0  0  0  0  0  0  0
    3.3815   -5.8169   35.1103 C   0  0  0  0  0  0  0  0  0  0  0  0
    3.7876   -6.0168   36.0423 O   0  0  0  0  0  0  0  0  0  0  0  0
    3.7785   -4.8161   33.4811 N   0  0  0  0  0  0  0  0  0  0  0  0
    4.8784   -3.7222   32.2751 C   0  0  0  0  0  0  0  0  0  0  0  0
    5.7756   -3.2275   32.2647 O   0  0  0  0  0  0  0  0  0  0  0  0
    3.8490   -3.9468   31.1363 N   0  0  0  0  0  0  0  0  0  0  0  0
    3.9759   -3.5813   29.6804 C   0  0  0  0  0  0  0  0  0  0  0  0
    2.9326   -3.9889   28.6560 C   0  0  0  0  0  0  0  0  0  0  0  0
    1.6535   -3.2342   28.9262 C   0  0  0  0  0  0  0  0  0  0  0  0
    1.4465   -3.1209   30.4338 C   0  0  0  0  0  0  0  0  0  0  0  0
    0.6711   -4.2939   31.0300 C   0  0  0  0  0  0  0  0  0  0  0  0
    0.7114   -5.5936   30.5123 C   0  0  0  0  0  0  0  0  0  0  0  0
   -0.0047   -6.6466   31.0836 C   0  0  0  0  0  0  0  0  0  0  0  0
   -0.7719   -6.4441   32.2246 C   0  0  0  0  0  0  0  0  0  0  0  0
   -1.4391   -7.6372   32.8593 C   0  0  0  0  0  0  0  0  0  0  0  0
   -1.8060   -7.4261   34.2139 O   0  0  0  0  0  0  0  0  0  0  0  0
   -0.8778   -5.1359   32.7064 C   0  0  0  0  0  0  0  0  0  0  0  0
   -0.1630   -4.0778   32.1287 C   0  0  0  0  0  0  0  0  0  0  0  0
    2.8261   -2.8196   31.1297 C   0  0  0  0  0  0  0  0  0  0  0  0
    4.8676   -4.3557   34.3951 C   0  0  0  0  0  0  0  0  0  0  0  0
    4.9243   -3.3476   35.3386 C   0  0  0  0  0  0  0  0  0  0  0  0
    6.0794   -3.3435   36.1039 N   0  0  0  0  0  0  0  0  0  0  0  0
    6.9084   -4.3195   35.7622 N   0  0  0  0  0  0  0  0  0  0  0  0
    6.3352   -5.2774   34.5093 S   0  0  0  0  0  0  0  0  0  0  0  0
    1.9508   -3.8876   36.3895 H   0  0  0  0  0  0  0  0  0  0  0  0
    1.2203   -3.5355   34.8126 H   0  0  0  0  0  0  0  0  0  0  0  0
    0.2058   -3.6912   36.2545 H   0  0  0  0  0  0  0  0  0  0  0  0
   -0.0570   -5.7191   35.0061 H   0  0  0  0  0  0  0  0  0  0  0  0
    1.6615   -6.1461   37.4353 H   0  0  0  0  0  0  0  0  0  0  0  0
   -0.0771   -6.3748   37.2588 H   0  0  0  0  0  0  0  0  0  0  0  0
    0.1973   -8.3318   35.9854 H   0  0  0  0  0  0  0  0  0  0  0  0
    1.7633   -8.3989   36.8355 H   0  0  0  0  0  0  0  0  0  0  0  0
    1.8515   -6.1011   33.5534 H   0  0  0  0  0  0  0  0  0  0  0  0
    4.8596   -4.1805   29.4052 H   0  0  0  0  0  0  0  0  0  0  0  0
    4.3836   -2.5688   29.5115 H   0  0  0  0  0  0  0  0  0  0  0  0
    3.2897   -3.7477   27.6475 H   0  0  0  0  0  0  0  0  0  0  0  0
    2.8100   -5.0721   28.6694 H   0  0  0  0  0  0  0  0  0  0  0  0
    0.7974   -3.6821   28.4129 H   0  0  0  0  0  0  0  0  0  0  0  0
    1.7642   -2.2206   28.5178 H   0  0  0  0  0  0  0  0  0  0  0  0
    0.8140   -2.2339   30.5856 H   0  0  0  0  0  0  0  0  0  0  0  0
    1.3033   -5.8307   29.6443 H   0  0  0  0  0  0  0  0  0  0  0  0
    0.0615   -7.6371   30.6416 H   0  0  0  0  0  0  0  0  0  0  0  0
   -2.3257   -7.9250   32.2891 H   0  0  0  0  0  0  0  0  0  0  0  0
   -0.7392   -8.4746   32.8398 H   0  0  0  0  0  0  0  0  0  0  0  0
   -1.7821   -8.3168   34.6261 H   0  0  0  0  0  0  0  0  0  0  0  0
   -1.4922   -4.9291   33.5804 H   0  0  0  0  0  0  0  0  0  0  0  0
   -0.2649   -3.0840   32.5617 H   0  0  0  0  0  0  0  0  0  0  0  0
    3.2389   -1.8268   30.8797 H   0  0  0  0  0  0  0  0  0  0  0  0
    2.5819   -2.6883   32.1959 H   0  0  0  0  0  0  0  0  0  0  0  0
    4.1583   -2.6128   35.5396 H   0  0  0  0  0  0  0  0  0  0  0  0
  1  2  1  0
  2  3  1  0
  3  4  1  0
  4  5  1  0
  5  6  1  0
  6  7  1  0
  7  8  2  0
  7  9  1  0
  9 10  1  0
 10 11  2  0
 10 12  1  0
 12 13  1  0
 13 14  1  0
 14 15  1  0
 15 16  1  0
 16 17  1  0
 17 18  2  0
 18 19  1  0
 19 20  2  0
 20 21  1  0
 21 22  1  0
 20 23  1  0
 23 24  2  0
 16 25  1  0
  9 26  1  0
 26 27  2  0
 27 28  1  0
 28 29  2  0
 29 30  1  0
  6  2  1  0
 25 12  1  0
 30 26  1  0
 24 17  1  0
  1 31  1  0
  1 32  1  0
  1 33  1  0
  2 34  1  0
  3 35  1  0
  3 36  1  0
  4 37  1  0
  4 38  1  0
  6 39  1  0
 13 40  1  0
 13 41  1  0
 14 42  1  0
 14 43  1  0
 15 44  1  0
 15 45  1  0
 16 46  1  0
 18 47  1  0
 19 48  1  0
 21 49  1  0
 21 50  1  0
 22 51  1  0
 23 52  1  0
 24 53  1  0
 25 54  1  0
 25 55  1  0
 27 56  1  0
M  END
>  <Energy>  (869) 
445.99558286614683

>  <compound_id>  (869) 
2162

>  <target_id>  (869) 
1

>  <reference_id>  (869) 
149

>  <inspiration_ids>  (869) 
[40, 149]

>  <energy_score>  (869) 
238.7940120766002

>  <distance_score>  (869) 
3.3949490377244858

>  <path>  (869) 
/opt/xchem-fragalysis-2/maxwin/BulkDock/SCRATCH/505732/C2162-P149/C2162-P149.minimised.mol

>  <scratch_subdir>  (869) 
/opt/xchem-fragalysis-2/maxwin/BulkDock/SCRATCH/505732/C2162-P149

>  <fragmenstein_runtime>  (869) 
7.978036403656006

>  <fragmenstein_outcome>  (869) 
too moved

>  <fragmenstein_mode>  (869) 
expansion

>  <fragmenstein_error>  (869) 


$$$$
C2162-P40
     RDKit          2D

  0  0  0  0  0  0  0  0  0  0999 V2000
M  END
>  <compound_id>  (870) 
2162

>  <target_id>  (870) 
1

>  <reference_id>  (870) 
40

>  <inspiration_ids>  (870) 
[40, 150]

>  <energy_score>  (870) 
nan

>  <distance_score>  (870) 
nan

>  <path>  (870) 
/opt/xchem-fragalysis-2/maxwin/BulkDock/SCRATCH/505732/C2162-P40/C2162-P40.minimised.mol

>  <scratch_subdir>  (870) 
/opt/xchem-fragalysis-2/maxwin/BulkDock/SCRATCH/505732/C2162-P40

>  <fragmenstein_runtime>  (870) 
0.38730335235595703

>  <fragmenstein_outcome>  (870) 
crashed

>  <fragmenstein_mode>  (870) 
expansion

>  <fragmenstein_error>  (870) 
PoisonError: None has poison atoms [0, 1, 2, 0, 1, 2, 4, 25, 29, 5, 4, 25]

$$$$
C2163-P40
     RDKit          3D

 64 67  0  0  0  0  0  0  0  0999 V2000
   -1.7066   -8.4204   32.1410 C   0  0  0  0  0  0  0  0  0  0  0  0
   -0.5070   -7.8499   31.4268 C   0  0  0  0  0  0  0  0  0  0  0  0
   -0.1227   -8.5820   30.1636 C   0  0  0  0  0  0  0  0  0  0  0  0
   -0.2844   -7.6526   29.0464 C   0  0  0  0  0  0  0  0  0  0  0  0
   -1.2070   -6.7161   29.5176 O   0  0  0  0  0  0  0  0  0  0  0  0
   -0.8340   -6.5066   30.8736 C   0  0  0  0  0  0  0  0  0  0  0  0
    0.3583   -5.6083   30.7936 C   0  0  0  0  0  0  0  0  0  0  0  0
    1.4805   -5.9970   31.1021 O   0  0  0  0  0  0  0  0  0  0  0  0
    0.0359   -4.1978   30.4202 C   0  0  0  0  0  0  0  0  0  0  0  0
    0.4590   -3.8424   28.9839 C   0  0  0  0  0  0  0  0  0  0  0  0
    1.6574   -4.5828   28.3588 C   0  0  0  0  0  0  0  0  0  0  0  0
    2.9433   -3.7678   28.3233 C   0  0  0  0  0  0  0  0  0  0  0  0
    3.1777   -2.9484   29.5100 N   0  0  0  0  0  0  0  0  0  0  0  0
    2.9264   -3.7055   30.6931 N   0  0  0  0  0  0  0  0  0  0  0  0
    2.1037   -2.7977   31.7976 S   0  0  0  0  0  0  0  0  0  0  0  0
    0.3744   -3.3852   31.6867 C   0  0  0  0  0  0  0  0  0  0  0  0
   -0.2537   -4.1604   32.9449 C   0  0  0  0  0  0  0  0  0  0  0  0
   -0.1770   -3.6908   34.3149 N   0  0  0  0  0  0  0  0  0  0  0  0
    1.1547   -3.8078   34.9339 C   0  0  0  0  0  0  0  0  0  0  0  0
    1.9666   -5.1498   34.8217 C   0  0  0  0  0  0  0  0  0  0  0  0
    3.3914   -4.9685   35.0961 N   0  0  0  0  0  0  0  0  0  0  0  0
    3.6671   -5.6256   36.3539 N   0  0  0  0  0  0  0  0  0  0  0  0
    2.3726   -5.9940   36.9334 C   0  0  0  0  0  0  0  0  0  0  0  0
    2.4617   -7.2054   37.8580 C   0  0  0  0  0  0  0  0  0  0  0  0
    3.6643   -7.5410   38.5138 C   0  0  0  0  0  0  0  0  0  0  0  0
    3.7451   -8.6407   39.3715 C   0  0  0  0  0  0  0  0  0  0  0  0
    2.6150   -9.4102   39.6211 C   0  0  0  0  0  0  0  0  0  0  0  0
    1.4044   -9.0739   39.0203 C   0  0  0  0  0  0  0  0  0  0  0  0
    1.3269   -7.9800   38.1503 C   0  0  0  0  0  0  0  0  0  0  0  0
    1.5272   -6.1968   35.7519 N   0  0  0  0  0  0  0  0  0  0  0  0
   -1.7334   -8.0718   33.1780 H   0  0  0  0  0  0  0  0  0  0  0  0
   -2.6525   -8.1395   31.6813 H   0  0  0  0  0  0  0  0  0  0  0  0
   -1.6474   -9.4972   32.1255 H   0  0  0  0  0  0  0  0  0  0  0  0
    0.3079   -7.8233   32.1535 H   0  0  0  0  0  0  0  0  0  0  0  0
    0.9382   -8.7281   30.1058 H   0  0  0  0  0  0  0  0  0  0  0  0
   -0.6501   -9.5225   29.9981 H   0  0  0  0  0  0  0  0  0  0  0  0
    0.6589   -7.1851   28.7564 H   0  0  0  0  0  0  0  0  0  0  0  0
   -0.6521   -8.1330   28.1771 H   0  0  0  0  0  0  0  0  0  0  0  0
   -1.6123   -6.0113   31.4438 H   0  0  0  0  0  0  0  0  0  0  0  0
   -1.0572   -4.1082   30.3818 H   0  0  0  0  0  0  0  0  0  0  0  0
   -0.4031   -4.0920   28.3545 H   0  0  0  0  0  0  0  0  0  0  0  0
    0.5479   -2.7552   28.8723 H   0  0  0  0  0  0  0  0  0  0  0  0
    1.4208   -4.8496   27.3278 H   0  0  0  0  0  0  0  0  0  0  0  0
    1.8759   -5.5316   28.8434 H   0  0  0  0  0  0  0  0  0  0  0  0
    2.9235   -3.0972   27.4562 H   0  0  0  0  0  0  0  0  0  0  0  0
    3.7963   -4.4389   28.1634 H   0  0  0  0  0  0  0  0  0  0  0  0
    2.5735   -2.1235   29.4904 H   0  0  0  0  0  0  0  0  0  0  0  0
    3.8019   -4.0644   31.0894 H   0  0  0  0  0  0  0  0  0  0  0  0
   -0.1895   -2.4451   31.6183 H   0  0  0  0  0  0  0  0  0  0  0  0
    0.0385   -5.2076   32.9861 H   0  0  0  0  0  0  0  0  0  0  0  0
   -1.3298   -4.1803   32.7327 H   0  0  0  0  0  0  0  0  0  0  0  0
   -0.8355   -4.2223   34.8901 H   0  0  0  0  0  0  0  0  0  0  0  0
    1.7656   -2.9860   34.5474 H   0  0  0  0  0  0  0  0  0  0  0  0
    1.0337   -3.5573   35.9963 H   0  0  0  0  0  0  0  0  0  0  0  0
    1.9017   -5.5321   33.8005 H   0  0  0  0  0  0  0  0  0  0  0  0
    3.6133   -3.9699   35.1449 H   0  0  0  0  0  0  0  0  0  0  0  0
    4.1801   -6.4894   36.1658 H   0  0  0  0  0  0  0  0  0  0  0  0
    1.9878   -5.1568   37.5302 H   0  0  0  0  0  0  0  0  0  0  0  0
    4.5604   -6.9376   38.3778 H   0  0  0  0  0  0  0  0  0  0  0  0
    4.6863   -8.8842   39.8584 H   0  0  0  0  0  0  0  0  0  0  0  0
    2.6710  -10.2631   40.2933 H   0  0  0  0  0  0  0  0  0  0  0  0
    0.5162   -9.6671   39.2276 H   0  0  0  0  0  0  0  0  0  0  0  0
    0.3684   -7.7332   37.6981 H   0  0  0  0  0  0  0  0  0  0  0  0
    1.8579   -7.0687   35.3520 H   0  0  0  0  0  0  0  0  0  0  0  0
  1  2  1  0
  2  3  1  0
  3  4  1  0
  4  5  1  0
  5  6  1  0
  6  7  1  0
  7  8  2  0
  7  9  1  0
  9 10  1  0
 10 11  1  0
 11 12  1  0
 12 13  1  0
 13 14  1  0
 14 15  1  0
 15 16  1  0
 16 17  1  0
 17 18  1  0
 18 19  1  0
 19 20  1  0
 20 21  1  0
 21 22  1  0
 22 23  1  0
 23 24  1  0
 24 25  2  0
 25 26  1  0
 26 27  2  0
 27 28  1  0
 28 29  2  0
 23 30  1  0
  6  2  1  0
 16  9  1  0
 30 20  1  0
 29 24  1  0
  1 31  1  0
  1 32  1  0
  1 33  1  0
  2 34  1  0
  3 35  1  0
  3 36  1  0
  4 37  1  0
  4 38  1  0
  6 39  1  0
  9 40  1  0
 10 41  1  0
 10 42  1  0
 11 43  1  0
 11 44  1  0
 12 45  1  0
 12 46  1  0
 13 47  1  0
 14 48  1  0
 16 49  1  0
 17 50  1  0
 17 51  1  0
 18 52  1  0
 19 53  1  0
 19 54  1  0
 20 55  1  0
 21 56  1  0
 22 57  1  0
 23 58  1  0
 25 59  1  0
 26 60  1  0
 27 61  1  0
 28 62  1  0
 29 63  1  0
 30 64  1  0
M  END
>  <Energy>  (871) 
172.60416079301658

>  <compound_id>  (871) 
2163

>  <target_id>  (871) 
1

>  <reference_id>  (871) 
40

>  <inspiration_ids>  (871) 
[40, 152]

>  <energy_score>  (871) 
-58.66679743177815

>  <distance_score>  (871) 
2.032126125063645

>  <path>  (871) 
/opt/xchem-fragalysis-2/maxwin/BulkDock/SCRATCH/505732/C2163-P40/C2163-P40.minimised.mol

>  <scratch_subdir>  (871) 
/opt/xchem-fragalysis-2/maxwin/BulkDock/SCRATCH/505732/C2163-P40

>  <fragmenstein_runtime>  (871) 
4.989493131637573

>  <fragmenstein_outcome>  (871) 
too moved

>  <fragmenstein_mode>  (871) 
expansion

>  <fragmenstein_error>  (871) 


$$$$
C2163-P152
     RDKit          3D

 64 67  0  0  0  0  0  0  0  0999 V2000
   -1.0282   -6.7214   35.2805 C   0  0  0  0  0  0  0  0  0  0  0  0
   -0.7110   -7.2691   33.9068 C   0  0  0  0  0  0  0  0  0  0  0  0
   -1.7265   -8.2519   33.4683 C   0  0  0  0  0  0  0  0  0  0  0  0
   -1.8765   -8.1574   31.9946 C   0  0  0  0  0  0  0  0  0  0  0  0
   -1.3209   -6.9335   31.5890 O   0  0  0  0  0  0  0  0  0  0  0  0
   -0.7211   -6.3215   32.7426 C   0  0  0  0  0  0  0  0  0  0  0  0
    0.6740   -5.9799   32.2655 C   0  0  0  0  0  0  0  0  0  0  0  0
    1.6785   -6.4364   32.8128 O   0  0  0  0  0  0  0  0  0  0  0  0
    0.7674   -5.0955   31.0316 C   0  0  0  0  0  0  0  0  0  0  0  0
    2.2469   -4.7706   30.7326 C   0  0  0  0  0  0  0  0  0  0  0  0
    2.7245   -5.4008   29.4184 C   0  0  0  0  0  0  0  0  0  0  0  0
    2.5809   -4.4397   28.2526 C   0  0  0  0  0  0  0  0  0  0  0  0
    1.2453   -3.8728   28.1836 N   0  0  0  0  0  0  0  0  0  0  0  0
    1.1051   -2.7548   29.0585 N   0  0  0  0  0  0  0  0  0  0  0  0
   -0.3653   -2.7904   29.8030 S   0  0  0  0  0  0  0  0  0  0  0  0
   -0.1149   -3.8612   31.2755 C   0  0  0  0  0  0  0  0  0  0  0  0
    0.2895   -3.0914   32.5600 C   0  0  0  0  0  0  0  0  0  0  0  0
   -0.0571   -3.7998   33.8070 N   0  0  0  0  0  0  0  0  0  0  0  0
    0.7983   -3.4462   34.9595 C   0  0  0  0  0  0  0  0  0  0  0  0
    2.1404   -4.2594   35.1562 C   0  0  0  0  0  0  0  0  0  0  0  0
    3.0314   -3.6546   36.1486 N   0  0  0  0  0  0  0  0  0  0  0  0
    2.7397   -4.3117   37.4190 N   0  0  0  0  0  0  0  0  0  0  0  0
    1.9379   -5.4975   37.1037 C   0  0  0  0  0  0  0  0  0  0  0  0
    2.3678   -6.7516   37.8547 C   0  0  0  0  0  0  0  0  0  0  0  0
    3.6815   -7.2523   37.7896 C   0  0  0  0  0  0  0  0  0  0  0  0
    4.0615   -8.3777   38.5295 C   0  0  0  0  0  0  0  0  0  0  0  0
    3.1340   -9.0281   39.3390 C   0  0  0  0  0  0  0  0  0  0  0  0
    1.8241   -8.5609   39.4023 C   0  0  0  0  0  0  0  0  0  0  0  0
    1.4437   -7.4346   38.6666 C   0  0  0  0  0  0  0  0  0  0  0  0
    1.9914   -5.6297   35.6532 N   0  0  0  0  0  0  0  0  0  0  0  0
   -2.0775   -6.4787   35.3756 H   0  0  0  0  0  0  0  0  0  0  0  0
   -0.7959   -7.4658   36.0492 H   0  0  0  0  0  0  0  0  0  0  0  0
   -0.4811   -5.8160   35.5090 H   0  0  0  0  0  0  0  0  0  0  0  0
    0.2577   -7.7651   34.0053 H   0  0  0  0  0  0  0  0  0  0  0  0
   -1.2352   -9.1716   33.5976 H   0  0  0  0  0  0  0  0  0  0  0  0
   -2.6632   -8.2617   34.0255 H   0  0  0  0  0  0  0  0  0  0  0  0
   -1.3279   -8.9611   31.4953 H   0  0  0  0  0  0  0  0  0  0  0  0
   -2.9229   -8.2048   31.7077 H   0  0  0  0  0  0  0  0  0  0  0  0
   -1.3432   -5.4699   32.9726 H   0  0  0  0  0  0  0  0  0  0  0  0
    0.3395   -5.6845   30.2117 H   0  0  0  0  0  0  0  0  0  0  0  0
    2.4566   -3.6965   30.7340 H   0  0  0  0  0  0  0  0  0  0  0  0
    2.8911   -5.0821   31.5487 H   0  0  0  0  0  0  0  0  0  0  0  0
    2.1878   -6.3281   29.1983 H   0  0  0  0  0  0  0  0  0  0  0  0
    3.7854   -5.6625   29.5052 H   0  0  0  0  0  0  0  0  0  0  0  0
    2.7940   -4.9902   27.3295 H   0  0  0  0  0  0  0  0  0  0  0  0
    3.3412   -3.6496   28.3076 H   0  0  0  0  0  0  0  0  0  0  0  0
    0.4984   -4.5582   28.3189 H   0  0  0  0  0  0  0  0  0  0  0  0
    1.1842   -1.8880   28.5093 H   0  0  0  0  0  0  0  0  0  0  0  0
   -1.1486   -4.1852   31.4240 H   0  0  0  0  0  0  0  0  0  0  0  0
    1.3637   -2.8758   32.5324 H   0  0  0  0  0  0  0  0  0  0  0  0
   -0.2161   -2.1179   32.5879 H   0  0  0  0  0  0  0  0  0  0  0  0
   -1.0285   -3.5734   34.0561 H   0  0  0  0  0  0  0  0  0  0  0  0
    1.0284   -2.3733   34.9095 H   0  0  0  0  0  0  0  0  0  0  0  0
    0.1894   -3.5608   35.8653 H   0  0  0  0  0  0  0  0  0  0  0  0
    2.6633   -4.2725   34.1933 H   0  0  0  0  0  0  0  0  0  0  0  0
    2.8616   -2.6486   36.2078 H   0  0  0  0  0  0  0  0  0  0  0  0
    3.6038   -4.6076   37.8767 H   0  0  0  0  0  0  0  0  0  0  0  0
    0.9045   -5.2673   37.3912 H   0  0  0  0  0  0  0  0  0  0  0  0
    4.4260   -6.7579   37.1688 H   0  0  0  0  0  0  0  0  0  0  0  0
    5.0829   -8.7452   38.4744 H   0  0  0  0  0  0  0  0  0  0  0  0
    3.4208   -9.9065   39.9114 H   0  0  0  0  0  0  0  0  0  0  0  0
    1.0942   -9.0863   40.0157 H   0  0  0  0  0  0  0  0  0  0  0  0
    0.4150   -7.0885   38.7392 H   0  0  0  0  0  0  0  0  0  0  0  0
    2.8714   -6.0835   35.4328 H   0  0  0  0  0  0  0  0  0  0  0  0
  1  2  1  0
  2  3  1  0
  3  4  1  0
  4  5  1  0
  5  6  1  0
  6  7  1  0
  7  8  2  0
  7  9  1  0
  9 10  1  0
 10 11  1  0
 11 12  1  0
 12 13  1  0
 13 14  1  0
 14 15  1  0
 15 16  1  0
 16 17  1  0
 17 18  1  0
 18 19  1  0
 19 20  1  0
 20 21  1  0
 21 22  1  0
 22 23  1  0
 23 24  1  0
 24 25  2  0
 25 26  1  0
 26 27  2  0
 27 28  1  0
 28 29  2  0
 23 30  1  0
  6  2  1  0
 16  9  1  0
 30 20  1  0
 29 24  1  0
  1 31  1  0
  1 32  1  0
  1 33  1  0
  2 34  1  0
  3 35  1  0
  3 36  1  0
  4 37  1  0
  4 38  1  0
  6 39  1  0
  9 40  1  0
 10 41  1  0
 10 42  1  0
 11 43  1  0
 11 44  1  0
 12 45  1  0
 12 46  1  0
 13 47  1  0
 14 48  1  0
 16 49  1  0
 17 50  1  0
 17 51  1  0
 18 52  1  0
 19 53  1  0
 19 54  1  0
 20 55  1  0
 21 56  1  0
 22 57  1  0
 23 58  1  0
 25 59  1  0
 26 60  1  0
 27 61  1  0
 28 62  1  0
 29 63  1  0
 30 64  1  0
M  END
>  <Energy>  (872) 
154.79382906082347

>  <compound_id>  (872) 
2163

>  <target_id>  (872) 
1

>  <reference_id>  (872) 
152

>  <inspiration_ids>  (872) 
[40, 152]

>  <energy_score>  (872) 
-76.47712916397253

>  <distance_score>  (872) 
2.248737755904696

>  <path>  (872) 
/opt/xchem-fragalysis-2/maxwin/BulkDock/SCRATCH/505732/C2163-P152/C2163-P152.minimised.mol

>  <scratch_subdir>  (872) 
/opt/xchem-fragalysis-2/maxwin/BulkDock/SCRATCH/505732/C2163-P152

>  <fragmenstein_runtime>  (872) 
6.912246942520142

>  <fragmenstein_outcome>  (872) 
too moved

>  <fragmenstein_mode>  (872) 
expansion

>  <fragmenstein_error>  (872) 


$$$$
C2166-P40
     RDKit          3D

 56 59  0  0  0  0  0  0  0  0999 V2000
    0.0285   -2.5166   33.8419 C   0  0  0  0  0  0  0  0  0  0  0  0
    0.8876   -3.7595   33.7598 C   0  0  0  0  0  0  0  0  0  0  0  0
    0.1842   -4.9586   33.1556 C   0  0  0  0  0  0  0  0  0  0  0  0
    1.0959   -6.0908   33.5810 C   0  0  0  0  0  0  0  0  0  0  0  0
    1.8242   -5.6431   34.7402 O   0  0  0  0  0  0  0  0  0  0  0  0
    1.3009   -4.3487   35.1049 C   0  0  0  0  0  0  0  0  0  0  0  0
    2.3196   -3.4593   35.8494 C   0  0  0  0  0  0  0  0  0  0  0  0
    1.9409   -2.6750   36.6718 O   0  0  0  0  0  0  0  0  0  0  0  0
    3.6257   -3.6959   35.3133 N   0  0  0  0  0  0  0  0  0  0  0  0
    4.7980   -3.0458   35.5113 C   0  0  0  0  0  0  0  0  0  0  0  0
    5.1644   -2.0199   36.3480 C   0  0  0  0  0  0  0  0  0  0  0  0
    6.4637   -1.6265   36.0540 N   0  0  0  0  0  0  0  0  0  0  0  0
    7.1222   -2.2246   35.0779 N   0  0  0  0  0  0  0  0  0  0  0  0
    6.1434   -3.4883   34.5616 S   0  0  0  0  0  0  0  0  0  0  0  0
    5.5847   -2.6292   33.0590 C   0  0  0  0  0  0  0  0  0  0  0  0
    5.1258   -3.6762   32.0436 C   0  0  0  0  0  0  0  0  0  0  0  0
    4.2541   -3.1016   31.0322 N   0  0  0  0  0  0  0  0  0  0  0  0
    4.5448   -2.5820   29.9825 C   0  0  0  0  0  0  0  0  0  0  0  0
    6.0719   -2.3867   29.5996 C   0  0  0  0  0  0  0  0  0  0  0  0
    6.3830   -0.6637   29.1165 S   0  0  0  0  0  0  0  0  0  0  0  0
    6.4598   -3.4947   28.2548 Cl  0  0  0  0  0  0  0  0  0  0  0  0
    3.6806   -2.0382   28.8059 N   0  0  0  0  0  0  0  0  0  0  0  0
    1.6741   -1.8938   28.8639 C   0  0  0  0  0  0  0  0  0  0  0  0
    0.8550   -3.2398   29.7814 C   0  0  0  0  0  0  0  0  0  0  0  0
    1.4403   -4.3680   29.0649 C   0  0  0  0  0  0  0  0  0  0  0  0
    1.3469   -6.0187   29.0593 S   0  0  0  0  0  0  0  0  0  0  0  0
    2.6087   -6.0901   27.8557 C   0  0  0  0  0  0  0  0  0  0  0  0
    3.0678   -4.8344   27.4855 C   0  0  0  0  0  0  0  0  0  0  0  0
    2.3657   -3.8647   28.2193 C   0  0  0  0  0  0  0  0  0  0  0  0
    2.3642   -2.0634   28.4953 C   0  0  0  0  0  0  0  0  0  0  0  0
   -0.3090   -2.2134   32.8454 H   0  0  0  0  0  0  0  0  0  0  0  0
    0.5870   -1.6812   34.2757 H   0  0  0  0  0  0  0  0  0  0  0  0
   -0.8598   -2.6850   34.4599 H   0  0  0  0  0  0  0  0  0  0  0  0
    1.7788   -3.5305   33.1597 H   0  0  0  0  0  0  0  0  0  0  0  0
    0.0561   -4.9061   32.0726 H   0  0  0  0  0  0  0  0  0  0  0  0
   -0.8093   -5.0937   33.6000 H   0  0  0  0  0  0  0  0  0  0  0  0
    1.8268   -6.3139   32.8011 H   0  0  0  0  0  0  0  0  0  0  0  0
    0.5450   -7.0045   33.8219 H   0  0  0  0  0  0  0  0  0  0  0  0
    0.4445   -4.5161   35.7710 H   0  0  0  0  0  0  0  0  0  0  0  0
    3.5876   -4.4989   34.6918 H   0  0  0  0  0  0  0  0  0  0  0  0
    4.5645   -1.5296   37.1031 H   0  0  0  0  0  0  0  0  0  0  0  0
    6.9706   -0.8743   36.5239 H   0  0  0  0  0  0  0  0  0  0  0  0
    4.7764   -1.9181   33.2672 H   0  0  0  0  0  0  0  0  0  0  0  0
    6.4104   -2.0470   32.6353 H   0  0  0  0  0  0  0  0  0  0  0  0
    5.9751   -4.2158   31.6076 H   0  0  0  0  0  0  0  0  0  0  0  0
    4.5312   -4.4484   32.5451 H   0  0  0  0  0  0  0  0  0  0  0  0
    6.7503   -2.6254   30.4163 H   0  0  0  0  0  0  0  0  0  0  0  0
    5.3369   -0.6098   28.2765 H   0  0  0  0  0  0  0  0  0  0  0  0
    0.8514   -1.3050   28.0841 H   0  0  0  0  0  0  0  0  0  0  0  0
    1.5481   -1.0732   29.7640 H   0  0  0  0  0  0  0  0  0  0  0  0
    1.1757   -3.1593   30.8217 H   0  0  0  0  0  0  0  0  0  0  0  0
   -0.2226   -3.1126   29.6560 H   0  0  0  0  0  0  0  0  0  0  0  0
    2.9639   -7.0445   27.4928 H   0  0  0  0  0  0  0  0  0  0  0  0
    3.8717   -4.6520   26.7824 H   0  0  0  0  0  0  0  0  0  0  0  0
    2.7202   -1.1136   27.7038 H   0  0  0  0  0  0  0  0  0  0  0  0
    2.3027   -2.3339   27.2441 H   0  0  0  0  0  0  0  0  0  0  0  0
  1  2  1  0
  2  3  1  0
  3  4  1  0
  4  5  1  0
  5  6  1  0
  6  7  1  0
  7  8  2  0
  7  9  1  0
  9 10  1  0
 10 11  2  0
 11 12  1  0
 12 13  1  0
 13 14  2  0
 14 15  1  0
 15 16  1  0
 16 17  1  0
 17 18  2  3
 18 19  1  0
 19 20  1  0
 19 21  1  0
 18 22  1  0
 22 23  1  0
 23 24  1  0
 24 25  1  0
 25 26  1  0
 26 27  1  0
 27 28  2  0
 28 29  1  0
 29 30  1  0
  6  2  1  0
 14 10  1  0
 30 22  1  0
 29 25  2  0
  1 31  1  0
  1 32  1  0
  1 33  1  0
  2 34  1  0
  3 35  1  0
  3 36  1  0
  4 37  1  0
  4 38  1  0
  6 39  1  0
  9 40  1  0
 11 41  1  0
 12 42  1  0
 15 43  1  0
 15 44  1  0
 16 45  1  0
 16 46  1  0
 19 47  1  0
 20 48  1  0
 23 49  1  0
 23 50  1  0
 24 51  1  0
 24 52  1  0
 27 53  1  0
 28 54  1  0
 30 55  1  0
 30 56  1  0
M  END
>  <Energy>  (873) 
861.08778355297989

>  <compound_id>  (873) 
2166

>  <target_id>  (873) 
1

>  <reference_id>  (873) 
40

>  <inspiration_ids>  (873) 
[40, 156]

>  <energy_score>  (873) 
573.749717085272

>  <distance_score>  (873) 
3.1138930280867863

>  <path>  (873) 
/opt/xchem-fragalysis-2/maxwin/BulkDock/SCRATCH/505732/C2166-P40/C2166-P40.minimised.mol

>  <scratch_subdir>  (873) 
/opt/xchem-fragalysis-2/maxwin/BulkDock/SCRATCH/505732/C2166-P40

>  <fragmenstein_runtime>  (873) 
7.02820348739624

>  <fragmenstein_outcome>  (873) 
too moved

>  <fragmenstein_mode>  (873) 
expansion

>  <fragmenstein_error>  (873) 


$$$$
C2166-P156
     RDKit          3D

 56 59  0  0  0  0  0  0  0  0999 V2000
    3.8319   -1.8868   33.3476 C   0  0  0  0  0  0  0  0  0  0  0  0
    4.7071   -2.9644   33.9536 C   0  0  0  0  0  0  0  0  0  0  0  0
    4.3373   -4.3694   33.5231 C   0  0  0  0  0  0  0  0  0  0  0  0
    5.0813   -5.2194   34.5330 C   0  0  0  0  0  0  0  0  0  0  0  0
    5.3474   -4.3913   35.6765 O   0  0  0  0  0  0  0  0  0  0  0  0
    4.7151   -3.1152   35.4755 C   0  0  0  0  0  0  0  0  0  0  0  0
    3.2974   -3.0956   36.1325 C   0  0  0  0  0  0  0  0  0  0  0  0
    2.7389   -4.1308   36.3648 O   0  0  0  0  0  0  0  0  0  0  0  0
    2.8542   -1.7279   36.2884 N   0  0  0  0  0  0  0  0  0  0  0  0
    1.6433   -1.2159   36.6588 C   0  0  0  0  0  0  0  0  0  0  0  0
    1.2637    0.0878   36.8892 C   0  0  0  0  0  0  0  0  0  0  0  0
   -0.1025    0.1555   37.1088 N   0  0  0  0  0  0  0  0  0  0  0  0
   -0.8213   -0.9500   37.0558 N   0  0  0  0  0  0  0  0  0  0  0  0
    0.2757   -2.2136   36.9161 S   0  0  0  0  0  0  0  0  0  0  0  0
   -0.0733   -2.5476   35.1671 C   0  0  0  0  0  0  0  0  0  0  0  0
   -0.2067   -4.0566   34.9337 C   0  0  0  0  0  0  0  0  0  0  0  0
   -0.1336   -4.3188   33.5043 N   0  0  0  0  0  0  0  0  0  0  0  0
   -0.0865   -5.3634   32.9135 C   0  0  0  0  0  0  0  0  0  0  0  0
    0.0018   -6.7598   33.6494 C   0  0  0  0  0  0  0  0  0  0  0  0
   -1.3165   -7.1744   34.7756 S   0  0  0  0  0  0  0  0  0  0  0  0
    1.6144   -6.9614   34.3673 Cl  0  0  0  0  0  0  0  0  0  0  0  0
    0.0089   -5.7147   31.3807 N   0  0  0  0  0  0  0  0  0  0  0  0
    0.1829   -5.0143   30.2431 C   0  0  0  0  0  0  0  0  0  0  0  0
    2.0205   -4.8599   30.6761 C   0  0  0  0  0  0  0  0  0  0  0  0
    2.2684   -3.6442   29.9130 C   0  0  0  0  0  0  0  0  0  0  0  0
    3.5723   -2.7541   29.4176 S   0  0  0  0  0  0  0  0  0  0  0  0
    2.5019   -1.6702   28.5780 C   0  0  0  0  0  0  0  0  0  0  0  0
    1.1671   -2.0418   28.6843 C   0  0  0  0  0  0  0  0  0  0  0  0
    1.0780   -3.2055   29.4552 C   0  0  0  0  0  0  0  0  0  0  0  0
   -0.1269   -4.3293   29.9195 C   0  0  0  0  0  0  0  0  0  0  0  0
    4.0547   -0.9086   33.7846 H   0  0  0  0  0  0  0  0  0  0  0  0
    2.7677   -2.0974   33.4792 H   0  0  0  0  0  0  0  0  0  0  0  0
    4.0172   -1.8110   32.2733 H   0  0  0  0  0  0  0  0  0  0  0  0
    5.7419   -2.7770   33.6325 H   0  0  0  0  0  0  0  0  0  0  0  0
    4.6209   -4.5988   32.4927 H   0  0  0  0  0  0  0  0  0  0  0  0
    3.2606   -4.5314   33.6263 H   0  0  0  0  0  0  0  0  0  0  0  0
    6.0451   -5.5541   34.1361 H   0  0  0  0  0  0  0  0  0  0  0  0
    4.5138   -6.1003   34.8432 H   0  0  0  0  0  0  0  0  0  0  0  0
    5.3405   -2.3563   35.9580 H   0  0  0  0  0  0  0  0  0  0  0  0
    3.6209   -1.1053   36.0706 H   0  0  0  0  0  0  0  0  0  0  0  0
    1.8798    0.9755   36.8715 H   0  0  0  0  0  0  0  0  0  0  0  0
   -0.6385    1.0059   37.2869 H   0  0  0  0  0  0  0  0  0  0  0  0
    0.7106   -2.1438   34.5185 H   0  0  0  0  0  0  0  0  0  0  0  0
   -1.0049   -2.0606   34.8533 H   0  0  0  0  0  0  0  0  0  0  0  0
    0.5724   -4.6026   35.4649 H   0  0  0  0  0  0  0  0  0  0  0  0
   -1.1735   -4.3685   35.3382 H   0  0  0  0  0  0  0  0  0  0  0  0
   -0.0523   -7.5298   32.8737 H   0  0  0  0  0  0  0  0  0  0  0  0
   -0.8306   -6.5236   35.8406 H   0  0  0  0  0  0  0  0  0  0  0  0
   -0.3834   -6.0800   29.8522 H   0  0  0  0  0  0  0  0  0  0  0  0
    0.8257   -5.6862   29.3352 H   0  0  0  0  0  0  0  0  0  0  0  0
    2.5561   -5.7416   30.3165 H   0  0  0  0  0  0  0  0  0  0  0  0
    2.1424   -4.7134   31.7493 H   0  0  0  0  0  0  0  0  0  0  0  0
    2.9126   -0.8254   28.0405 H   0  0  0  0  0  0  0  0  0  0  0  0
    0.3505   -1.5107   28.2074 H   0  0  0  0  0  0  0  0  0  0  0  0
   -0.8206   -3.5193   30.5066 H   0  0  0  0  0  0  0  0  0  0  0  0
   -0.9300   -4.4589   28.9847 H   0  0  0  0  0  0  0  0  0  0  0  0
  1  2  1  0
  2  3  1  0
  3  4  1  0
  4  5  1  0
  5  6  1  0
  6  7  1  0
  7  8  2  0
  7  9  1  0
  9 10  1  0
 10 11  2  0
 11 12  1  0
 12 13  1  0
 13 14  2  0
 14 15  1  0
 15 16  1  0
 16 17  1  0
 17 18  2  3
 18 19  1  0
 19 20  1  0
 19 21  1  0
 18 22  1  0
 22 23  1  0
 23 24  1  0
 24 25  1  0
 25 26  1  0
 26 27  1  0
 27 28  2  0
 28 29  1  0
 29 30  1  0
  6  2  1  0
 14 10  1  0
 30 22  1  0
 29 25  2  0
  1 31  1  0
  1 32  1  0
  1 33  1  0
  2 34  1  0
  3 35  1  0
  3 36  1  0
  4 37  1  0
  4 38  1  0
  6 39  1  0
  9 40  1  0
 11 41  1  0
 12 42  1  0
 15 43  1  0
 15 44  1  0
 16 45  1  0
 16 46  1  0
 19 47  1  0
 20 48  1  0
 23 49  1  0
 23 50  1  0
 24 51  1  0
 24 52  1  0
 27 53  1  0
 28 54  1  0
 30 55  1  0
 30 56  1  0
M  END
>  <Energy>  (874) 
870.12860884152212

>  <compound_id>  (874) 
2166

>  <target_id>  (874) 
1

>  <reference_id>  (874) 
156

>  <inspiration_ids>  (874) 
[40, 156]

>  <energy_score>  (874) 
582.7905423738105

>  <distance_score>  (874) 
3.9073597746091284

>  <path>  (874) 
/opt/xchem-fragalysis-2/maxwin/BulkDock/SCRATCH/505732/C2166-P156/C2166-P156.minimised.mol

>  <scratch_subdir>  (874) 
/opt/xchem-fragalysis-2/maxwin/BulkDock/SCRATCH/505732/C2166-P156

>  <fragmenstein_runtime>  (874) 
6.792062282562256

>  <fragmenstein_outcome>  (874) 
too moved

>  <fragmenstein_mode>  (874) 
expansion

>  <fragmenstein_error>  (874) 


$$$$
C2167-P40
     RDKit          3D

 43 47  0  0  0  0  0  0  0  0999 V2000
    0.2263   -7.1775   35.1404 C   0  0  0  0  0  0  0  0  0  0  0  0
    0.4741   -5.7242   34.7610 C   0  0  0  0  0  0  0  0  0  0  0  0
    0.3601   -4.7843   35.9553 C   0  0  0  0  0  0  0  0  0  0  0  0
   -0.2339   -3.5067   35.3783 C   0  0  0  0  0  0  0  0  0  0  0  0
   -0.3867   -3.7200   33.9644 O   0  0  0  0  0  0  0  0  0  0  0  0
   -0.5470   -5.1120   33.8096 C   0  0  0  0  0  0  0  0  0  0  0  0
   -0.6616   -5.8332   32.4730 C   0  0  0  0  0  0  0  0  0  0  0  0
   -1.3915   -6.8404   32.4554 O   0  0  0  0  0  0  0  0  0  0  0  0
    0.0920   -5.5582   31.1995 C   0  0  0  0  0  0  0  0  0  0  0  0
    0.1813   -6.7532   30.4597 C   0  0  0  0  0  0  0  0  0  0  0  0
    0.8180   -6.8488   29.2359 C   0  0  0  0  0  0  0  0  0  0  0  0
    1.4405   -5.7319   28.7026 C   0  0  0  0  0  0  0  0  0  0  0  0
    2.1383   -5.7210   27.5083 N   0  0  0  0  0  0  0  0  0  0  0  0
    2.5806   -4.5222   27.2182 N   0  0  0  0  0  0  0  0  0  0  0  0
    2.1786   -3.4035   28.3788 S   0  0  0  0  0  0  0  0  0  0  0  0
    1.3283   -4.5274   29.3863 C   0  0  0  0  0  0  0  0  0  0  0  0
    0.6417   -4.3772   30.6332 C   0  0  0  0  0  0  0  0  0  0  0  0
    0.5814   -2.7069   31.2498 S   0  0  0  0  0  0  0  0  0  0  0  0
    1.9619   -2.7892   32.2562 C   0  0  0  0  0  0  0  0  0  0  0  0
    2.7747   -3.8099   32.3242 N   0  0  0  0  0  0  0  0  0  0  0  0
    3.2806   -3.7134   33.5781 C   0  0  0  0  0  0  0  0  0  0  0  0
    3.9975   -4.6701   34.2891 C   0  0  0  0  0  0  0  0  0  0  0  0
    4.2850   -4.4080   35.6259 C   0  0  0  0  0  0  0  0  0  0  0  0
    3.9528   -3.1849   36.2071 C   0  0  0  0  0  0  0  0  0  0  0  0
    4.2793   -2.9644   37.4875 F   0  0  0  0  0  0  0  0  0  0  0  0
    3.2693   -2.1940   35.5061 C   0  0  0  0  0  0  0  0  0  0  0  0
    2.9154   -2.5189   34.1973 C   0  0  0  0  0  0  0  0  0  0  0  0
    2.1307   -1.8924   33.2660 N   0  0  0  0  0  0  0  0  0  0  0  0
    0.9362   -7.5001   35.9092 H   0  0  0  0  0  0  0  0  0  0  0  0
   -0.7860   -7.3243   35.5319 H   0  0  0  0  0  0  0  0  0  0  0  0
    0.3530   -7.8352   34.2754 H   0  0  0  0  0  0  0  0  0  0  0  0
    1.4687   -5.6512   34.3192 H   0  0  0  0  0  0  0  0  0  0  0  0
   -0.3043   -5.1782   36.7338 H   0  0  0  0  0  0  0  0  0  0  0  0
    1.3278   -4.6089   36.4313 H   0  0  0  0  0  0  0  0  0  0  0  0
   -1.2234   -3.3086   35.8057 H   0  0  0  0  0  0  0  0  0  0  0  0
    0.3849   -2.6260   35.5562 H   0  0  0  0  0  0  0  0  0  0  0  0
   -1.5169   -5.3333   34.2582 H   0  0  0  0  0  0  0  0  0  0  0  0
   -0.2398   -7.6878   30.8407 H   0  0  0  0  0  0  0  0  0  0  0  0
    0.8281   -7.7906   28.7052 H   0  0  0  0  0  0  0  0  0  0  0  0
    4.2911   -5.6035   33.8374 H   0  0  0  0  0  0  0  0  0  0  0  0
    4.8177   -5.1436   36.2232 H   0  0  0  0  0  0  0  0  0  0  0  0
    2.9850   -1.2635   35.9817 H   0  0  0  0  0  0  0  0  0  0  0  0
    1.5630   -1.0716   33.4141 H   0  0  0  0  0  0  0  0  0  0  0  0
  1  2  1  0
  2  3  1  0
  3  4  1  0
  4  5  1  0
  5  6  1  0
  6  7  1  0
  7  8  2  0
  7  9  1  0
  9 10  2  0
 10 11  1  0
 11 12  2  0
 12 13  1  0
 13 14  2  0
 14 15  1  0
 15 16  1  0
 16 17  2  0
 17 18  1  0
 18 19  1  0
 19 20  2  0
 20 21  1  0
 21 22  2  0
 22 23  1  0
 23 24  2  0
 24 25  1  0
 24 26  1  0
 26 27  2  0
 27 28  1  0
  6  2  1  0
 17  9  1  0
 28 19  1  0
 16 12  1  0
 27 21  1  0
  1 29  1  0
  1 30  1  0
  1 31  1  0
  2 32  1  0
  3 33  1  0
  3 34  1  0
  4 35  1  0
  4 36  1  0
  6 37  1  0
 10 38  1  0
 11 39  1  0
 22 40  1  0
 23 41  1  0
 26 42  1  0
 28 43  1  0
M  END
>  <Energy>  (875) 
87.9325183857095

>  <compound_id>  (875) 
2167

>  <target_id>  (875) 
1

>  <reference_id>  (875) 
40

>  <inspiration_ids>  (875) 
[40, 157]

>  <energy_score>  (875) 
-109.54764401293511

>  <distance_score>  (875) 
2.9211262728006853

>  <path>  (875) 
/opt/xchem-fragalysis-2/maxwin/BulkDock/SCRATCH/505732/C2167-P40/C2167-P40.minimised.mol

>  <scratch_subdir>  (875) 
/opt/xchem-fragalysis-2/maxwin/BulkDock/SCRATCH/505732/C2167-P40

>  <fragmenstein_runtime>  (875) 
5.08546781539917

>  <fragmenstein_outcome>  (875) 
too moved

>  <fragmenstein_mode>  (875) 
expansion

>  <fragmenstein_error>  (875) 


$$$$
C2167-P157
     RDKit          3D

 43 47  0  0  0  0  0  0  0  0999 V2000
   -1.0955   -7.3044   34.4737 C   0  0  0  0  0  0  0  0  0  0  0  0
   -0.2189   -6.1173   34.8069 C   0  0  0  0  0  0  0  0  0  0  0  0
   -0.8407   -5.1424   35.7874 C   0  0  0  0  0  0  0  0  0  0  0  0
   -0.6791   -3.7791   35.1584 C   0  0  0  0  0  0  0  0  0  0  0  0
    0.2705   -3.8986   34.1025 O   0  0  0  0  0  0  0  0  0  0  0  0
    0.3058   -5.2592   33.6606 C   0  0  0  0  0  0  0  0  0  0  0  0
   -0.2619   -5.3215   32.2514 C   0  0  0  0  0  0  0  0  0  0  0  0
   -1.0695   -6.1637   31.8681 O   0  0  0  0  0  0  0  0  0  0  0  0
    0.3219   -4.3623   31.2479 C   0  0  0  0  0  0  0  0  0  0  0  0
   -0.5035   -3.8592   30.2566 C   0  0  0  0  0  0  0  0  0  0  0  0
    0.0113   -3.6621   28.9695 C   0  0  0  0  0  0  0  0  0  0  0  0
    1.2974   -4.1635   28.6707 C   0  0  0  0  0  0  0  0  0  0  0  0
    1.9137   -4.2735   27.4336 N   0  0  0  0  0  0  0  0  0  0  0  0
    3.0534   -4.9319   27.4789 N   0  0  0  0  0  0  0  0  0  0  0  0
    3.5115   -5.2705   29.0370 S   0  0  0  0  0  0  0  0  0  0  0  0
    2.0886   -4.6091   29.7244 C   0  0  0  0  0  0  0  0  0  0  0  0
    1.7168   -4.3184   31.0417 C   0  0  0  0  0  0  0  0  0  0  0  0
    2.4273   -2.5354   31.4017 S   0  0  0  0  0  0  0  0  0  0  0  0
    3.1529   -3.0043   32.8699 C   0  0  0  0  0  0  0  0  0  0  0  0
    3.6466   -4.1962   33.0712 N   0  0  0  0  0  0  0  0  0  0  0  0
    3.4502   -4.3839   34.4011 C   0  0  0  0  0  0  0  0  0  0  0  0
    3.5049   -5.5838   35.1111 C   0  0  0  0  0  0  0  0  0  0  0  0
    3.0955   -5.5672   36.4445 C   0  0  0  0  0  0  0  0  0  0  0  0
    2.7314   -4.3737   37.0686 C   0  0  0  0  0  0  0  0  0  0  0  0
    2.3706   -4.4024   38.3585 F   0  0  0  0  0  0  0  0  0  0  0  0
    2.6995   -3.1570   36.3882 C   0  0  0  0  0  0  0  0  0  0  0  0
    3.0274   -3.2147   35.0343 C   0  0  0  0  0  0  0  0  0  0  0  0
    2.9349   -2.3006   34.0148 N   0  0  0  0  0  0  0  0  0  0  0  0
   -0.5897   -7.9813   33.7796 H   0  0  0  0  0  0  0  0  0  0  0  0
   -1.3368   -7.8684   35.3807 H   0  0  0  0  0  0  0  0  0  0  0  0
   -2.0339   -6.9903   34.0248 H   0  0  0  0  0  0  0  0  0  0  0  0
    0.6553   -6.5483   35.3122 H   0  0  0  0  0  0  0  0  0  0  0  0
   -0.2944   -5.1754   36.7378 H   0  0  0  0  0  0  0  0  0  0  0  0
   -1.8800   -5.3602   36.0354 H   0  0  0  0  0  0  0  0  0  0  0  0
   -1.6053   -3.4014   34.7256 H   0  0  0  0  0  0  0  0  0  0  0  0
   -0.3311   -3.0324   35.8781 H   0  0  0  0  0  0  0  0  0  0  0  0
    1.3442   -5.5571   33.5105 H   0  0  0  0  0  0  0  0  0  0  0  0
   -1.5562   -3.6832   30.4436 H   0  0  0  0  0  0  0  0  0  0  0  0
   -0.6319   -3.2766   28.1841 H   0  0  0  0  0  0  0  0  0  0  0  0
    3.8136   -6.5029   34.6304 H   0  0  0  0  0  0  0  0  0  0  0  0
    3.0955   -6.4842   37.0277 H   0  0  0  0  0  0  0  0  0  0  0  0
    2.3655   -2.2499   36.8761 H   0  0  0  0  0  0  0  0  0  0  0  0
    2.4934   -1.3954   34.0687 H   0  0  0  0  0  0  0  0  0  0  0  0
  1  2  1  0
  2  3  1  0
  3  4  1  0
  4  5  1  0
  5  6  1  0
  6  7  1  0
  7  8  2  0
  7  9  1  0
  9 10  2  0
 10 11  1  0
 11 12  2  0
 12 13  1  0
 13 14  2  0
 14 15  1  0
 15 16  1  0
 16 17  2  0
 17 18  1  0
 18 19  1  0
 19 20  2  0
 20 21  1  0
 21 22  2  0
 22 23  1  0
 23 24  2  0
 24 25  1  0
 24 26  1  0
 26 27  2  0
 27 28  1  0
  6  2  1  0
 17  9  1  0
 28 19  1  0
 16 12  1  0
 27 21  1  0
  1 29  1  0
  1 30  1  0
  1 31  1  0
  2 32  1  0
  3 33  1  0
  3 34  1  0
  4 35  1  0
  4 36  1  0
  6 37  1  0
 10 38  1  0
 11 39  1  0
 22 40  1  0
 23 41  1  0
 26 42  1  0
 28 43  1  0
M  END
>  <Energy>  (876) 
133.25616161691428

>  <compound_id>  (876) 
2167

>  <target_id>  (876) 
1

>  <reference_id>  (876) 
157

>  <inspiration_ids>  (876) 
[40, 157]

>  <energy_score>  (876) 
-64.22400078172797

>  <distance_score>  (876) 
2.617612912865528

>  <path>  (876) 
/opt/xchem-fragalysis-2/maxwin/BulkDock/SCRATCH/505732/C2167-P157/C2167-P157.minimised.mol

>  <scratch_subdir>  (876) 
/opt/xchem-fragalysis-2/maxwin/BulkDock/SCRATCH/505732/C2167-P157

>  <fragmenstein_runtime>  (876) 
4.578779220581055

>  <fragmenstein_outcome>  (876) 
too moved

>  <fragmenstein_mode>  (876) 
expansion

>  <fragmenstein_error>  (876) 


$$$$
C2168-P40
     RDKit          3D

 32 34  0  0  0  0  0  0  0  0999 V2000
   -1.0080   -3.7681   31.3961 C   0  0  0  0  0  0  0  0  0  0  0  0
   -0.0173   -3.6985   30.2322 C   0  0  0  0  0  0  0  0  0  0  0  0
    0.9613   -2.5541   30.3656 C   0  0  0  0  0  0  0  0  0  0  0  0
    2.1133   -3.0125   29.4999 C   0  0  0  0  0  0  0  0  0  0  0  0
    2.2254   -4.4272   29.7060 O   0  0  0  0  0  0  0  0  0  0  0  0
    0.9125   -4.9010   30.0015 C   0  0  0  0  0  0  0  0  0  0  0  0
    0.9564   -5.8199   31.1971 C   0  0  0  0  0  0  0  0  0  0  0  0
    1.5056   -5.3410   32.4022 C   0  0  0  0  0  0  0  0  0  0  0  0
    1.0590   -5.8169   33.6272 C   0  0  0  0  0  0  0  0  0  0  0  0
   -0.0061   -6.7099   33.5737 C   0  0  0  0  0  0  0  0  0  0  0  0
   -1.0382   -7.2714   34.8188 S   0  0  0  0  0  0  0  0  0  0  0  0
   -1.9970   -8.1096   33.7548 N   0  0  0  0  0  0  0  0  0  0  0  0
   -1.5397   -8.1307   32.5223 N   0  0  0  0  0  0  0  0  0  0  0  0
   -0.4488   -7.3032   32.3880 C   0  0  0  0  0  0  0  0  0  0  0  0
    0.1550   -6.9797   31.1670 C   0  0  0  0  0  0  0  0  0  0  0  0
   -0.2359   -7.6829   29.9088 C   0  0  0  0  0  0  0  0  0  0  0  0
    0.8279   -7.9599   29.0122 O   0  0  0  0  0  0  0  0  0  0  0  0
   -1.1397   -6.8602   29.2389 O   0  0  0  0  0  0  0  0  0  0  0  0
   -0.8796   -8.8550   30.0702 F   0  0  0  0  0  0  0  0  0  0  0  0
   -1.7811   -3.0027   31.2631 H   0  0  0  0  0  0  0  0  0  0  0  0
   -0.5404   -3.5634   32.3634 H   0  0  0  0  0  0  0  0  0  0  0  0
   -1.5033   -4.7327   31.4457 H   0  0  0  0  0  0  0  0  0  0  0  0
   -0.5963   -3.5512   29.3093 H   0  0  0  0  0  0  0  0  0  0  0  0
    0.5501   -1.5943   30.0397 H   0  0  0  0  0  0  0  0  0  0  0  0
    1.3001   -2.4409   31.4017 H   0  0  0  0  0  0  0  0  0  0  0  0
    3.0570   -2.5273   29.7635 H   0  0  0  0  0  0  0  0  0  0  0  0
    1.9113   -2.8357   28.4374 H   0  0  0  0  0  0  0  0  0  0  0  0
    0.6010   -5.3938   29.0844 H   0  0  0  0  0  0  0  0  0  0  0  0
    2.1859   -4.4892   32.3930 H   0  0  0  0  0  0  0  0  0  0  0  0
    1.3961   -5.3824   34.5629 H   0  0  0  0  0  0  0  0  0  0  0  0
    1.4304   -7.2037   29.0945 H   0  0  0  0  0  0  0  0  0  0  0  0
   -1.8531   -7.4482   28.9569 H   0  0  0  0  0  0  0  0  0  0  0  0
  1  2  1  0
  2  3  1  0
  3  4  1  0
  4  5  1  0
  5  6  1  0
  6  7  1  0
  7  8  2  0
  8  9  1  0
  9 10  2  0
 10 11  1  0
 11 12  1  0
 12 13  2  0
 13 14  1  0
 14 15  2  0
 15 16  1  0
 16 17  1  0
 16 18  1  0
 16 19  1  0
  6  2  1  0
 15  7  1  0
 14 10  1  0
  1 20  1  0
  1 21  1  0
  1 22  1  0
  2 23  1  0
  3 24  1  0
  3 25  1  0
  4 26  1  0
  4 27  1  0
  6 28  1  0
  8 29  1  0
  9 30  1  0
 17 31  1  0
 18 32  1  0
M  END
>  <Energy>  (877) 
-16.087702628493986

>  <compound_id>  (877) 
2168

>  <target_id>  (877) 
1

>  <reference_id>  (877) 
40

>  <inspiration_ids>  (877) 
[40, 158]

>  <energy_score>  (877) 
-68.84583509088614

>  <distance_score>  (877) 
2.060128818448304

>  <path>  (877) 
/opt/xchem-fragalysis-2/maxwin/BulkDock/SCRATCH/505732/C2168-P40/C2168-P40.minimised.mol

>  <scratch_subdir>  (877) 
/opt/xchem-fragalysis-2/maxwin/BulkDock/SCRATCH/505732/C2168-P40

>  <fragmenstein_runtime>  (877) 
1.681434154510498

>  <fragmenstein_outcome>  (877) 
too moved

>  <fragmenstein_mode>  (877) 
expansion

>  <fragmenstein_error>  (877) 


$$$$
C2168-P158
     RDKit          3D

 32 34  0  0  0  0  0  0  0  0999 V2000
   -0.9756   -3.5016   31.2888 C   0  0  0  0  0  0  0  0  0  0  0  0
    0.4027   -3.7817   30.7231 C   0  0  0  0  0  0  0  0  0  0  0  0
    0.7327   -3.1437   29.4005 C   0  0  0  0  0  0  0  0  0  0  0  0
    1.9565   -3.9503   28.9876 C   0  0  0  0  0  0  0  0  0  0  0  0
    1.8563   -5.2550   29.6008 O   0  0  0  0  0  0  0  0  0  0  0  0
    0.6508   -5.2429   30.3611 C   0  0  0  0  0  0  0  0  0  0  0  0
    0.6630   -6.0981   31.6011 C   0  0  0  0  0  0  0  0  0  0  0  0
    1.2744   -5.6211   32.7757 C   0  0  0  0  0  0  0  0  0  0  0  0
    0.8086   -5.9979   34.0289 C   0  0  0  0  0  0  0  0  0  0  0  0
   -0.3147   -6.8186   34.0416 C   0  0  0  0  0  0  0  0  0  0  0  0
   -1.3129   -7.3266   35.3347 S   0  0  0  0  0  0  0  0  0  0  0  0
   -2.3530   -8.1558   34.3406 N   0  0  0  0  0  0  0  0  0  0  0  0
   -1.9537   -8.1876   33.0871 N   0  0  0  0  0  0  0  0  0  0  0  0
   -0.8307   -7.4118   32.8916 C   0  0  0  0  0  0  0  0  0  0  0  0
   -0.2214   -7.1874   31.6512 C   0  0  0  0  0  0  0  0  0  0  0  0
   -0.6544   -8.0000   30.4848 C   0  0  0  0  0  0  0  0  0  0  0  0
    0.2890   -8.2811   29.4992 O   0  0  0  0  0  0  0  0  0  0  0  0
   -1.6963   -7.3651   29.8400 O   0  0  0  0  0  0  0  0  0  0  0  0
   -1.1316   -9.2178   30.8218 F   0  0  0  0  0  0  0  0  0  0  0  0
   -1.0103   -2.4766   31.6756 H   0  0  0  0  0  0  0  0  0  0  0  0
   -1.2444   -4.1666   32.1117 H   0  0  0  0  0  0  0  0  0  0  0  0
   -1.7387   -3.5549   30.5125 H   0  0  0  0  0  0  0  0  0  0  0  0
    1.1446   -3.4059   31.4392 H   0  0  0  0  0  0  0  0  0  0  0  0
   -0.0778   -3.2900   28.6760 H   0  0  0  0  0  0  0  0  0  0  0  0
    0.9403   -2.0718   29.4637 H   0  0  0  0  0  0  0  0  0  0  0  0
    2.8784   -3.4871   29.3546 H   0  0  0  0  0  0  0  0  0  0  0  0
    2.0341   -4.0628   27.9029 H   0  0  0  0  0  0  0  0  0  0  0  0
   -0.1459   -5.5534   29.6842 H   0  0  0  0  0  0  0  0  0  0  0  0
    2.0446   -4.8523   32.7246 H   0  0  0  0  0  0  0  0  0  0  0  0
    1.2100   -5.5657   34.9396 H   0  0  0  0  0  0  0  0  0  0  0  0
    0.2971   -9.2631   29.5348 H   0  0  0  0  0  0  0  0  0  0  0  0
   -1.4482   -7.3899   28.9000 H   0  0  0  0  0  0  0  0  0  0  0  0
  1  2  1  0
  2  3  1  0
  3  4  1  0
  4  5  1  0
  5  6  1  0
  6  7  1  0
  7  8  2  0
  8  9  1  0
  9 10  2  0
 10 11  1  0
 11 12  1  0
 12 13  2  0
 13 14  1  0
 14 15  2  0
 15 16  1  0
 16 17  1  0
 16 18  1  0
 16 19  1  0
  6  2  1  0
 15  7  1  0
 14 10  1  0
  1 20  1  0
  1 21  1  0
  1 22  1  0
  2 23  1  0
  3 24  1  0
  3 25  1  0
  4 26  1  0
  4 27  1  0
  6 28  1  0
  8 29  1  0
  9 30  1  0
 17 31  1  0
 18 32  1  0
M  END
>  <Energy>  (878) 
-14.147379403894288

>  <compound_id>  (878) 
2168

>  <target_id>  (878) 
1

>  <reference_id>  (878) 
158

>  <inspiration_ids>  (878) 
[40, 158]

>  <energy_score>  (878) 
-66.90551186628494

>  <distance_score>  (878) 
2.1134680245789195

>  <path>  (878) 
/opt/xchem-fragalysis-2/maxwin/BulkDock/SCRATCH/505732/C2168-P158/C2168-P158.minimised.mol

>  <scratch_subdir>  (878) 
/opt/xchem-fragalysis-2/maxwin/BulkDock/SCRATCH/505732/C2168-P158

>  <fragmenstein_runtime>  (878) 
1.3119323253631592

>  <fragmenstein_outcome>  (878) 
too moved

>  <fragmenstein_mode>  (878) 
expansion

>  <fragmenstein_error>  (878) 


$$$$
C2169-P40
     RDKit          3D

 44 46  0  0  0  0  0  0  0  0999 V2000
   -0.6420   -2.8944   33.6088 C   0  0  0  0  0  0  0  0  0  0  0  0
    0.3866   -1.8169   33.9399 C   0  0  0  0  0  0  0  0  0  0  0  0
    0.2343   -0.6686   32.9608 C   0  0  0  0  0  0  0  0  0  0  0  0
    1.0198   -1.1498   31.7629 C   0  0  0  0  0  0  0  0  0  0  0  0
    2.0556   -1.9958   32.2719 O   0  0  0  0  0  0  0  0  0  0  0  0
    1.8449   -2.2174   33.6836 C   0  0  0  0  0  0  0  0  0  0  0  0
    2.3079   -3.6590   34.0585 C   0  0  0  0  0  0  0  0  0  0  0  0
    2.9861   -4.2652   33.2757 O   0  0  0  0  0  0  0  0  0  0  0  0
    1.7577   -4.0558   35.3282 N   0  0  0  0  0  0  0  0  0  0  0  0
    1.7678   -5.2399   35.9603 C   0  0  0  0  0  0  0  0  0  0  0  0
    2.5336   -6.2900   35.6641 C   0  0  0  0  0  0  0  0  0  0  0  0
    2.0543   -7.4979   36.1287 N   0  0  0  0  0  0  0  0  0  0  0  0
    0.7280   -7.3303   36.6560 N   0  0  0  0  0  0  0  0  0  0  0  0
   -0.2196   -8.0307   35.7521 C   0  0  0  0  0  0  0  0  0  0  0  0
   -0.8197   -7.3062   34.5214 C   0  0  0  0  0  0  0  0  0  0  0  0
    0.1195   -7.1389   33.3659 N   0  0  0  0  0  0  0  0  0  0  0  0
   -0.6997   -6.7082   31.9403 S   0  0  0  0  0  0  0  0  0  0  0  0
   -1.3660   -5.4577   32.2203 O   0  0  0  0  0  0  0  0  0  0  0  0
   -1.4345   -7.8553   31.4523 O   0  0  0  0  0  0  0  0  0  0  0  0
    0.4432   -6.2439   30.7002 C   0  0  0  0  0  0  0  0  0  0  0  0
    1.3065   -5.1785   30.5330 C   0  0  0  0  0  0  0  0  0  0  0  0
    1.9943   -5.2855   29.2944 C   0  0  0  0  0  0  0  0  0  0  0  0
    1.7055   -6.3434   28.5417 N   0  0  0  0  0  0  0  0  0  0  0  0
    0.5079   -7.2132   29.3049 S   0  0  0  0  0  0  0  0  0  0  0  0
    0.5017   -5.7017   37.0355 S   0  0  0  0  0  0  0  0  0  0  0  0
   -0.5919   -3.7418   34.2949 H   0  0  0  0  0  0  0  0  0  0  0  0
   -0.5058   -3.2626   32.5907 H   0  0  0  0  0  0  0  0  0  0  0  0
   -1.6560   -2.4856   33.6793 H   0  0  0  0  0  0  0  0  0  0  0  0
    0.2326   -1.4823   34.9714 H   0  0  0  0  0  0  0  0  0  0  0  0
    0.7120    0.2281   33.3751 H   0  0  0  0  0  0  0  0  0  0  0  0
   -0.7992   -0.4090   32.7136 H   0  0  0  0  0  0  0  0  0  0  0  0
    0.4030   -1.7381   31.0760 H   0  0  0  0  0  0  0  0  0  0  0  0
    1.4654   -0.3241   31.2005 H   0  0  0  0  0  0  0  0  0  0  0  0
    2.5179   -1.5275   34.2093 H   0  0  0  0  0  0  0  0  0  0  0  0
    1.1650   -3.3141   35.6771 H   0  0  0  0  0  0  0  0  0  0  0  0
    3.3887   -6.3089   35.0018 H   0  0  0  0  0  0  0  0  0  0  0  0
    2.6963   -7.9202   36.8050 H   0  0  0  0  0  0  0  0  0  0  0  0
   -1.0708   -8.3136   36.3733 H   0  0  0  0  0  0  0  0  0  0  0  0
    0.2316   -8.9755   35.4494 H   0  0  0  0  0  0  0  0  0  0  0  0
   -1.2091   -6.3249   34.8104 H   0  0  0  0  0  0  0  0  0  0  0  0
   -1.6773   -7.8990   34.1846 H   0  0  0  0  0  0  0  0  0  0  0  0
    0.8508   -6.4620   33.5890 H   0  0  0  0  0  0  0  0  0  0  0  0
    1.4352   -4.3761   31.2443 H   0  0  0  0  0  0  0  0  0  0  0  0
    2.7344   -4.5889   28.9189 H   0  0  0  0  0  0  0  0  0  0  0  0
  1  2  1  0
  2  3  1  0
  3  4  1  0
  4  5  1  0
  5  6  1  0
  6  7  1  0
  7  8  2  0
  7  9  1  0
  9 10  1  0
 10 11  2  0
 11 12  1  0
 12 13  1  0
 13 14  1  0
 14 15  1  0
 15 16  1  0
 16 17  1  0
 17 18  2  0
 17 19  2  0
 17 20  1  0
 20 21  2  0
 21 22  1  0
 22 23  2  0
 23 24  1  0
 13 25  1  0
  6  2  1  0
 25 10  1  0
 24 20  1  0
  1 26  1  0
  1 27  1  0
  1 28  1  0
  2 29  1  0
  3 30  1  0
  3 31  1  0
  4 32  1  0
  4 33  1  0
  6 34  1  0
  9 35  1  0
 11 36  1  0
 12 37  1  0
 14 38  1  0
 14 39  1  0
 15 40  1  0
 15 41  1  0
 16 42  1  0
 21 43  1  0
 22 44  1  0
M  END
>  <Energy>  (879) 
19.707312466158836

>  <compound_id>  (879) 
2169

>  <target_id>  (879) 
1

>  <reference_id>  (879) 
40

>  <inspiration_ids>  (879) 
[40, 159]

>  <energy_score>  (879) 
-102.20748180550277

>  <distance_score>  (879) 
4.165518828089256

>  <path>  (879) 
/opt/xchem-fragalysis-2/maxwin/BulkDock/SCRATCH/505732/C2169-P40/C2169-P40.minimised.mol

>  <scratch_subdir>  (879) 
/opt/xchem-fragalysis-2/maxwin/BulkDock/SCRATCH/505732/C2169-P40

>  <fragmenstein_runtime>  (879) 
4.999830484390259

>  <fragmenstein_outcome>  (879) 
too moved

>  <fragmenstein_mode>  (879) 
expansion

>  <fragmenstein_error>  (879) 


$$$$
C2169-P159
     RDKit          3D

 44 46  0  0  0  0  0  0  0  0999 V2000
   -0.3167   -5.0407   31.5867 C   0  0  0  0  0  0  0  0  0  0  0  0
   -0.1507   -6.4274   32.1849 C   0  0  0  0  0  0  0  0  0  0  0  0
   -0.9425   -7.4739   31.4445 C   0  0  0  0  0  0  0  0  0  0  0  0
   -1.7629   -8.1604   32.5077 C   0  0  0  0  0  0  0  0  0  0  0  0
   -1.8463   -7.2914   33.6286 O   0  0  0  0  0  0  0  0  0  0  0  0
   -0.6858   -6.4799   33.6145 C   0  0  0  0  0  0  0  0  0  0  0  0
    0.3658   -6.9774   34.6234 C   0  0  0  0  0  0  0  0  0  0  0  0
    1.3998   -7.4562   34.2455 O   0  0  0  0  0  0  0  0  0  0  0  0
   -0.0977   -6.6637   35.9543 N   0  0  0  0  0  0  0  0  0  0  0  0
    0.5328   -6.7316   37.1558 C   0  0  0  0  0  0  0  0  0  0  0  0
    0.1605   -5.8985   38.1429 C   0  0  0  0  0  0  0  0  0  0  0  0
    1.2129   -5.0508   38.5567 N   0  0  0  0  0  0  0  0  0  0  0  0
    2.3296   -5.1757   37.5968 N   0  0  0  0  0  0  0  0  0  0  0  0
    2.0692   -4.1543   36.5136 C   0  0  0  0  0  0  0  0  0  0  0  0
    2.8856   -4.3091   35.2035 C   0  0  0  0  0  0  0  0  0  0  0  0
    2.2173   -3.6107   34.0283 N   0  0  0  0  0  0  0  0  0  0  0  0
    3.3392   -3.2278   32.7858 S   0  0  0  0  0  0  0  0  0  0  0  0
    4.2707   -4.3246   32.6675 O   0  0  0  0  0  0  0  0  0  0  0  0
    3.7736   -1.8827   33.0925 O   0  0  0  0  0  0  0  0  0  0  0  0
    2.5053   -3.0676   31.2372 C   0  0  0  0  0  0  0  0  0  0  0  0
    1.5058   -2.2450   30.7465 C   0  0  0  0  0  0  0  0  0  0  0  0
    1.2325   -2.5506   29.3779 C   0  0  0  0  0  0  0  0  0  0  0  0
    1.9576   -3.5187   28.8226 N   0  0  0  0  0  0  0  0  0  0  0  0
    3.0379   -4.0651   29.9555 S   0  0  0  0  0  0  0  0  0  0  0  0
    2.2784   -6.8161   37.1651 S   0  0  0  0  0  0  0  0  0  0  0  0
   -1.3484   -4.6922   31.6009 H   0  0  0  0  0  0  0  0  0  0  0  0
    0.0213   -5.0324   30.5477 H   0  0  0  0  0  0  0  0  0  0  0  0
    0.2596   -4.3185   32.1649 H   0  0  0  0  0  0  0  0  0  0  0  0
    0.9172   -6.6486   32.1238 H   0  0  0  0  0  0  0  0  0  0  0  0
   -0.3113   -8.1801   30.8999 H   0  0  0  0  0  0  0  0  0  0  0  0
   -1.5928   -7.0310   30.6949 H   0  0  0  0  0  0  0  0  0  0  0  0
   -2.7639   -8.4117   32.1625 H   0  0  0  0  0  0  0  0  0  0  0  0
   -1.2715   -9.0647   32.8325 H   0  0  0  0  0  0  0  0  0  0  0  0
   -0.9716   -5.4719   33.9377 H   0  0  0  0  0  0  0  0  0  0  0  0
   -0.9934   -6.1909   35.8900 H   0  0  0  0  0  0  0  0  0  0  0  0
   -0.8180   -5.4554   38.2804 H   0  0  0  0  0  0  0  0  0  0  0  0
    1.5242   -5.3380   39.4909 H   0  0  0  0  0  0  0  0  0  0  0  0
    2.2846   -3.1632   36.9342 H   0  0  0  0  0  0  0  0  0  0  0  0
    1.0055   -4.1294   36.2411 H   0  0  0  0  0  0  0  0  0  0  0  0
    3.0031   -5.3547   34.9089 H   0  0  0  0  0  0  0  0  0  0  0  0
    3.8822   -3.8858   35.3748 H   0  0  0  0  0  0  0  0  0  0  0  0
    1.8259   -2.7146   34.3325 H   0  0  0  0  0  0  0  0  0  0  0  0
    1.0066   -1.4804   31.3259 H   0  0  0  0  0  0  0  0  0  0  0  0
    0.4886   -2.0669   28.7535 H   0  0  0  0  0  0  0  0  0  0  0  0
  1  2  1  0
  2  3  1  0
  3  4  1  0
  4  5  1  0
  5  6  1  0
  6  7  1  0
  7  8  2  0
  7  9  1  0
  9 10  1  0
 10 11  2  0
 11 12  1  0
 12 13  1  0
 13 14  1  0
 14 15  1  0
 15 16  1  0
 16 17  1  0
 17 18  2  0
 17 19  2  0
 17 20  1  0
 20 21  2  0
 21 22  1  0
 22 23  2  0
 23 24  1  0
 13 25  1  0
  6  2  1  0
 25 10  1  0
 24 20  1  0
  1 26  1  0
  1 27  1  0
  1 28  1  0
  2 29  1  0
  3 30  1  0
  3 31  1  0
  4 32  1  0
  4 33  1  0
  6 34  1  0
  9 35  1  0
 11 36  1  0
 12 37  1  0
 14 38  1  0
 14 39  1  0
 15 40  1  0
 15 41  1  0
 16 42  1  0
 21 43  1  0
 22 44  1  0
M  END
>  <Energy>  (880) 
48.03652141519936

>  <compound_id>  (880) 
2169

>  <target_id>  (880) 
1

>  <reference_id>  (880) 
159

>  <inspiration_ids>  (880) 
[40, 159]

>  <energy_score>  (880) 
-73.87827285646148

>  <distance_score>  (880) 
2.7866963122396933

>  <path>  (880) 
/opt/xchem-fragalysis-2/maxwin/BulkDock/SCRATCH/505732/C2169-P159/C2169-P159.minimised.mol

>  <scratch_subdir>  (880) 
/opt/xchem-fragalysis-2/maxwin/BulkDock/SCRATCH/505732/C2169-P159

>  <fragmenstein_runtime>  (880) 
5.116986989974976

>  <fragmenstein_outcome>  (880) 
too moved

>  <fragmenstein_mode>  (880) 
expansion

>  <fragmenstein_error>  (880) 


$$$$
C2170-P40
     RDKit          3D

 53 55  0  0  0  0  0  0  0  0999 V2000
    4.8257   -0.9980   29.8437 C   0  0  0  0  0  0  0  0  0  0  0  0
    3.8760    0.0019   29.1788 C   0  0  0  0  0  0  0  0  0  0  0  0
    4.4250    0.4486   27.8348 C   0  0  0  0  0  0  0  0  0  0  0  0
    3.9503   -0.6399   26.8885 C   0  0  0  0  0  0  0  0  0  0  0  0
    2.8345   -1.2912   27.5095 O   0  0  0  0  0  0  0  0  0  0  0  0
    2.5490   -0.6101   28.7311 C   0  0  0  0  0  0  0  0  0  0  0  0
    1.7834   -1.3931   29.8305 C   0  0  0  0  0  0  0  0  0  0  0  0
    1.8423   -1.0453   30.9847 O   0  0  0  0  0  0  0  0  0  0  0  0
    1.0119   -2.4204   29.2095 N   0  0  0  0  0  0  0  0  0  0  0  0
   -0.1163   -3.3769   29.8001 C   0  0  0  0  0  0  0  0  0  0  0  0
   -1.3102   -2.5215   30.2955 C   0  0  0  0  0  0  0  0  0  0  0  0
   -1.1593   -1.7067   31.5861 C   0  0  0  0  0  0  0  0  0  0  0  0
   -0.6696   -2.4767   32.8173 C   0  0  0  0  0  0  0  0  0  0  0  0
    0.7163   -2.9232   32.5985 N   0  0  0  0  0  0  0  0  0  0  0  0
    1.5546   -3.6160   33.8857 S   0  0  0  0  0  0  0  0  0  0  0  0
    1.5286   -2.6592   34.9684 O   0  0  0  0  0  0  0  0  0  0  0  0
    2.7964   -4.1276   33.3499 O   0  0  0  0  0  0  0  0  0  0  0  0
    0.5606   -5.0118   34.3231 C   0  0  0  0  0  0  0  0  0  0  0  0
    0.0311   -5.0745   35.6111 C   0  0  0  0  0  0  0  0  0  0  0  0
   -0.7847   -6.1425   35.9556 C   0  0  0  0  0  0  0  0  0  0  0  0
   -1.0699   -7.1285   35.0170 C   0  0  0  0  0  0  0  0  0  0  0  0
   -1.9443   -8.1041   35.3883 O   0  0  0  0  0  0  0  0  0  0  0  0
   -0.5207   -7.0913   33.7382 C   0  0  0  0  0  0  0  0  0  0  0  0
    0.3084   -6.0235   33.3858 C   0  0  0  0  0  0  0  0  0  0  0  0
    1.7728   -3.6908   29.1915 C   0  0  0  0  0  0  0  0  0  0  0  0
    2.7944   -4.1859   29.9916 C   0  0  0  0  0  0  0  0  0  0  0  0
    3.3128   -5.4130   29.5968 N   0  0  0  0  0  0  0  0  0  0  0  0
    2.8084   -5.8082   28.4424 N   0  0  0  0  0  0  0  0  0  0  0  0
    1.7957   -4.6655   27.7784 S   0  0  0  0  0  0  0  0  0  0  0  0
    5.8085   -0.5418   30.0042 H   0  0  0  0  0  0  0  0  0  0  0  0
    4.4489   -1.3094   30.8225 H   0  0  0  0  0  0  0  0  0  0  0  0
    4.9697   -1.8983   29.2377 H   0  0  0  0  0  0  0  0  0  0  0  0
    3.7241    0.8490   29.8564 H   0  0  0  0  0  0  0  0  0  0  0  0
    5.5096    0.5884   27.8077 H   0  0  0  0  0  0  0  0  0  0  0  0
    3.9638    1.4024   27.5491 H   0  0  0  0  0  0  0  0  0  0  0  0
    4.7267   -1.3929   26.7203 H   0  0  0  0  0  0  0  0  0  0  0  0
    3.6475   -0.2340   25.9190 H   0  0  0  0  0  0  0  0  0  0  0  0
    1.8643    0.2082   28.4614 H   0  0  0  0  0  0  0  0  0  0  0  0
    0.1832   -4.0382   30.6234 H   0  0  0  0  0  0  0  0  0  0  0  0
   -0.5406   -3.9660   28.9725 H   0  0  0  0  0  0  0  0  0  0  0  0
   -1.6172   -1.8412   29.4910 H   0  0  0  0  0  0  0  0  0  0  0  0
   -2.1508   -3.1998   30.4604 H   0  0  0  0  0  0  0  0  0  0  0  0
   -0.5217   -0.8372   31.4036 H   0  0  0  0  0  0  0  0  0  0  0  0
   -2.1470   -1.2908   31.8263 H   0  0  0  0  0  0  0  0  0  0  0  0
   -0.7106   -1.8097   33.6846 H   0  0  0  0  0  0  0  0  0  0  0  0
   -1.3211   -3.3361   32.9975 H   0  0  0  0  0  0  0  0  0  0  0  0
    1.3023   -2.1488   32.2377 H   0  0  0  0  0  0  0  0  0  0  0  0
    0.2358   -4.2990   36.3459 H   0  0  0  0  0  0  0  0  0  0  0  0
   -1.1973   -6.1936   36.9576 H   0  0  0  0  0  0  0  0  0  0  0  0
   -1.7081   -8.9458   34.9313 H   0  0  0  0  0  0  0  0  0  0  0  0
   -0.7509   -7.8686   33.0166 H   0  0  0  0  0  0  0  0  0  0  0  0
    0.7437   -5.9702   32.3917 H   0  0  0  0  0  0  0  0  0  0  0  0
    3.1779   -3.7258   30.8921 H   0  0  0  0  0  0  0  0  0  0  0  0
  1  2  1  0
  2  3  1  0
  3  4  1  0
  4  5  1  0
  5  6  1  0
  6  7  1  0
  7  8  2  0
  7  9  1  0
  9 10  1  0
 10 11  1  0
 11 12  1  0
 12 13  1  0
 13 14  1  0
 14 15  1  0
 15 16  2  0
 15 17  2  0
 15 18  1  0
 18 19  2  0
 19 20  1  0
 20 21  2  0
 21 22  1  0
 21 23  1  0
 23 24  2  0
  9 25  1  0
 25 26  2  0
 26 27  1  0
 27 28  2  0
 28 29  1  0
  6  2  1  0
 24 18  1  0
 29 25  1  0
  1 30  1  0
  1 31  1  0
  1 32  1  0
  2 33  1  0
  3 34  1  0
  3 35  1  0
  4 36  1  0
  4 37  1  0
  6 38  1  0
 10 39  1  0
 10 40  1  0
 11 41  1  0
 11 42  1  0
 12 43  1  0
 12 44  1  0
 13 45  1  0
 13 46  1  0
 14 47  1  0
 19 48  1  0
 20 49  1  0
 22 50  1  0
 23 51  1  0
 24 52  1  0
 26 53  1  0
M  END
>  <Energy>  (881) 
79.027411922206383

>  <compound_id>  (881) 
2170

>  <target_id>  (881) 
1

>  <reference_id>  (881) 
40

>  <inspiration_ids>  (881) 
[40, 162]

>  <energy_score>  (881) 
-23.433631419552682

>  <distance_score>  (881) 
2.897622441489798

>  <path>  (881) 
/opt/xchem-fragalysis-2/maxwin/BulkDock/SCRATCH/505732/C2170-P40/C2170-P40.minimised.mol

>  <scratch_subdir>  (881) 
/opt/xchem-fragalysis-2/maxwin/BulkDock/SCRATCH/505732/C2170-P40

>  <fragmenstein_runtime>  (881) 
11.274144649505615

>  <fragmenstein_outcome>  (881) 
too moved

>  <fragmenstein_mode>  (881) 
expansion

>  <fragmenstein_error>  (881) 


$$$$
C2170-P162
     RDKit          3D

 53 55  0  0  0  0  0  0  0  0999 V2000
    3.2189    2.1549   29.4577 C   0  0  0  0  0  0  0  0  0  0  0  0
    1.9286    2.4468   28.7158 C   0  0  0  0  0  0  0  0  0  0  0  0
    1.6752    1.5306   27.5422 C   0  0  0  0  0  0  0  0  0  0  0  0
    0.1998    1.7455   27.2780 C   0  0  0  0  0  0  0  0  0  0  0  0
   -0.4095    2.0916   28.5191 O   0  0  0  0  0  0  0  0  0  0  0  0
    0.6165    2.3555   29.4885 C   0  0  0  0  0  0  0  0  0  0  0  0
    0.5634    1.4005   30.7209 C   0  0  0  0  0  0  0  0  0  0  0  0
    1.2935    1.6069   31.6577 O   0  0  0  0  0  0  0  0  0  0  0  0
   -0.4748    0.4353   30.5489 N   0  0  0  0  0  0  0  0  0  0  0  0
   -1.0865   -0.5916   31.5503 C   0  0  0  0  0  0  0  0  0  0  0  0
   -0.1808   -1.0878   32.6920 C   0  0  0  0  0  0  0  0  0  0  0  0
   -0.7786   -2.2859   33.4184 C   0  0  0  0  0  0  0  0  0  0  0  0
   -1.0717   -3.4819   32.5295 C   0  0  0  0  0  0  0  0  0  0  0  0
    0.0668   -3.9341   31.7433 N   0  0  0  0  0  0  0  0  0  0  0  0
    1.2919   -4.8509   32.4177 S   0  0  0  0  0  0  0  0  0  0  0  0
    2.0338   -4.0189   33.3353 O   0  0  0  0  0  0  0  0  0  0  0  0
    1.9344   -5.5505   31.3268 O   0  0  0  0  0  0  0  0  0  0  0  0
    0.3980   -6.0668   33.3517 C   0  0  0  0  0  0  0  0  0  0  0  0
    0.3796   -5.9922   34.7498 C   0  0  0  0  0  0  0  0  0  0  0  0
   -0.4506   -6.8498   35.4678 C   0  0  0  0  0  0  0  0  0  0  0  0
   -1.2328   -7.7679   34.7804 C   0  0  0  0  0  0  0  0  0  0  0  0
   -2.0821   -8.5679   35.4854 O   0  0  0  0  0  0  0  0  0  0  0  0
   -1.1892   -7.8703   33.3914 C   0  0  0  0  0  0  0  0  0  0  0  0
   -0.3631   -7.0186   32.6653 C   0  0  0  0  0  0  0  0  0  0  0  0
    0.0769   -0.8192   29.9424 C   0  0  0  0  0  0  0  0  0  0  0  0
    1.3575   -1.3636   29.8869 C   0  0  0  0  0  0  0  0  0  0  0  0
    1.4721   -2.5605   29.1941 N   0  0  0  0  0  0  0  0  0  0  0  0
    0.3338   -2.8969   28.6158 N   0  0  0  0  0  0  0  0  0  0  0  0
   -0.8504   -1.7123   28.7653 S   0  0  0  0  0  0  0  0  0  0  0  0
    3.3405    2.8329   30.3084 H   0  0  0  0  0  0  0  0  0  0  0  0
    3.2592    1.1264   29.8260 H   0  0  0  0  0  0  0  0  0  0  0  0
    4.0789    2.2965   28.7941 H   0  0  0  0  0  0  0  0  0  0  0  0
    2.0032    3.4696   28.3184 H   0  0  0  0  0  0  0  0  0  0  0  0
    1.8653    0.4861   27.8054 H   0  0  0  0  0  0  0  0  0  0  0  0
    2.2954    1.7719   26.6742 H   0  0  0  0  0  0  0  0  0  0  0  0
   -0.2929    0.8568   26.8823 H   0  0  0  0  0  0  0  0  0  0  0  0
    0.0394    2.5739   26.5800 H   0  0  0  0  0  0  0  0  0  0  0  0
    0.3837    3.3432   29.9087 H   0  0  0  0  0  0  0  0  0  0  0  0
   -1.7941   -1.3103   31.1176 H   0  0  0  0  0  0  0  0  0  0  0  0
   -1.8004    0.0691   32.0723 H   0  0  0  0  0  0  0  0  0  0  0  0
    0.8285   -1.3488   32.3675 H   0  0  0  0  0  0  0  0  0  0  0  0
   -0.0434   -0.2714   33.4131 H   0  0  0  0  0  0  0  0  0  0  0  0
   -1.7100   -1.9805   33.9114 H   0  0  0  0  0  0  0  0  0  0  0  0
   -0.0940   -2.5817   34.2221 H   0  0  0  0  0  0  0  0  0  0  0  0
   -1.4292   -4.2970   33.1503 H   0  0  0  0  0  0  0  0  0  0  0  0
   -1.8949   -3.2675   31.8421 H   0  0  0  0  0  0  0  0  0  0  0  0
    0.0261   -3.9563   30.7201 H   0  0  0  0  0  0  0  0  0  0  0  0
    0.9657   -5.2449   35.2808 H   0  0  0  0  0  0  0  0  0  0  0  0
   -0.5041   -6.7897   36.5516 H   0  0  0  0  0  0  0  0  0  0  0  0
   -1.6750   -9.4756   35.4658 H   0  0  0  0  0  0  0  0  0  0  0  0
   -1.8170   -8.5946   32.8814 H   0  0  0  0  0  0  0  0  0  0  0  0
   -0.3438   -7.0682   31.5802 H   0  0  0  0  0  0  0  0  0  0  0  0
    2.2308   -0.9746   30.3941 H   0  0  0  0  0  0  0  0  0  0  0  0
  1  2  1  0
  2  3  1  0
  3  4  1  0
  4  5  1  0
  5  6  1  0
  6  7  1  0
  7  8  2  0
  7  9  1  0
  9 10  1  0
 10 11  1  0
 11 12  1  0
 12 13  1  0
 13 14  1  0
 14 15  1  0
 15 16  2  0
 15 17  2  0
 15 18  1  0
 18 19  2  0
 19 20  1  0
 20 21  2  0
 21 22  1  0
 21 23  1  0
 23 24  2  0
  9 25  1  0
 25 26  2  0
 26 27  1  0
 27 28  2  0
 28 29  1  0
  6  2  1  0
 24 18  1  0
 29 25  1  0
  1 30  1  0
  1 31  1  0
  1 32  1  0
  2 33  1  0
  3 34  1  0
  3 35  1  0
  4 36  1  0
  4 37  1  0
  6 38  1  0
 10 39  1  0
 10 40  1  0
 11 41  1  0
 11 42  1  0
 12 43  1  0
 12 44  1  0
 13 45  1  0
 13 46  1  0
 14 47  1  0
 19 48  1  0
 20 49  1  0
 22 50  1  0
 23 51  1  0
 24 52  1  0
 26 53  1  0
M  END
>  <Energy>  (882) 
94.609611000778827

>  <compound_id>  (882) 
2170

>  <target_id>  (882) 
1

>  <reference_id>  (882) 
162

>  <inspiration_ids>  (882) 
[40, 162]

>  <energy_score>  (882) 
-7.851432340978903

>  <distance_score>  (882) 
2.90110498108146

>  <path>  (882) 
/opt/xchem-fragalysis-2/maxwin/BulkDock/SCRATCH/505732/C2170-P162/C2170-P162.minimised.mol

>  <scratch_subdir>  (882) 
/opt/xchem-fragalysis-2/maxwin/BulkDock/SCRATCH/505732/C2170-P162

>  <fragmenstein_runtime>  (882) 
8.655553340911865

>  <fragmenstein_outcome>  (882) 
too moved

>  <fragmenstein_mode>  (882) 
expansion

>  <fragmenstein_error>  (882) 


$$$$
C2172-P40
     RDKit          3D

 50 52  0  0  0  0  0  0  0  0999 V2000
   -0.0598   -8.3209   29.7533 C   0  0  0  0  0  0  0  0  0  0  0  0
   -0.4805   -6.9259   30.0282 C   0  0  0  0  0  0  0  0  0  0  0  0
    0.5181   -5.9189   29.4622 C   0  0  0  0  0  0  0  0  0  0  0  0
   -0.0821   -4.6504   29.9970 C   0  0  0  0  0  0  0  0  0  0  0  0
   -0.7061   -5.0162   31.2586 O   0  0  0  0  0  0  0  0  0  0  0  0
   -0.5171   -6.4166   31.4578 C   0  0  0  0  0  0  0  0  0  0  0  0
   -1.0973   -7.3266   32.6167 C   0  0  0  0  0  0  0  0  0  0  0  0
   -1.4164   -8.4432   32.4739 O   0  0  0  0  0  0  0  0  0  0  0  0
   -1.0299   -6.4504   33.9091 N   0  0  0  0  0  0  0  0  0  0  0  0
   -1.2377   -6.7839   35.2216 C   0  0  0  0  0  0  0  0  0  0  0  0
   -1.2888   -5.8420   36.1833 C   0  0  0  0  0  0  0  0  0  0  0  0
   -0.6612   -6.1202   37.3864 N   0  0  0  0  0  0  0  0  0  0  0  0
   -0.0130   -7.3752   37.3507 N   0  0  0  0  0  0  0  0  0  0  0  0
    1.3933   -7.1884   37.7524 C   0  0  0  0  0  0  0  0  0  0  0  0
    2.3709   -6.6557   36.6797 C   0  0  0  0  0  0  0  0  0  0  0  0
    1.8838   -5.4292   36.0168 N   0  0  0  0  0  0  0  0  0  0  0  0
    1.6730   -5.4409   34.3756 S   0  0  0  0  0  0  0  0  0  0  0  0
    0.5292   -4.5957   34.1047 O   0  0  0  0  0  0  0  0  0  0  0  0
    1.7959   -6.7800   33.8561 O   0  0  0  0  0  0  0  0  0  0  0  0
    2.9523   -4.5808   33.7636 N   0  0  0  0  0  0  0  0  0  0  0  0
    3.0444   -3.1870   34.2830 C   0  0  0  0  0  0  0  0  0  0  0  0
    2.9983   -2.2782   33.0621 C   0  0  0  0  0  0  0  0  0  0  0  0
    2.2983   -3.0981   32.0086 C   0  0  0  0  0  0  0  0  0  0  0  0
    2.8842   -4.4623   32.2743 C   0  0  0  0  0  0  0  0  0  0  0  0
   -0.4232   -8.1657   35.9161 S   0  0  0  0  0  0  0  0  0  0  0  0
   -0.1228   -8.5010   28.6904 H   0  0  0  0  0  0  0  0  0  0  0  0
    0.9660   -8.4493   30.0292 H   0  0  0  0  0  0  0  0  0  0  0  0
   -0.6669   -9.0630   30.2628 H   0  0  0  0  0  0  0  0  0  0  0  0
   -1.4646   -6.8117   29.5759 H   0  0  0  0  0  0  0  0  0  0  0  0
    1.5128   -6.0733   29.8957 H   0  0  0  0  0  0  0  0  0  0  0  0
    0.6988   -5.9114   28.3926 H   0  0  0  0  0  0  0  0  0  0  0  0
    0.6583   -3.8689   30.1511 H   0  0  0  0  0  0  0  0  0  0  0  0
   -0.8504   -4.2421   29.3353 H   0  0  0  0  0  0  0  0  0  0  0  0
    0.5294   -6.4772   31.7854 H   0  0  0  0  0  0  0  0  0  0  0  0
   -0.7863   -5.4874   33.6583 H   0  0  0  0  0  0  0  0  0  0  0  0
   -1.5516   -4.8018   36.0249 H   0  0  0  0  0  0  0  0  0  0  0  0
   -1.2724   -5.9722   38.1952 H   0  0  0  0  0  0  0  0  0  0  0  0
    1.4353   -6.5310   38.6320 H   0  0  0  0  0  0  0  0  0  0  0  0
    1.7776   -8.1560   38.1004 H   0  0  0  0  0  0  0  0  0  0  0  0
    3.3206   -6.4047   37.1670 H   0  0  0  0  0  0  0  0  0  0  0  0
    2.6084   -7.4515   35.9681 H   0  0  0  0  0  0  0  0  0  0  0  0
    1.0176   -5.1101   36.4597 H   0  0  0  0  0  0  0  0  0  0  0  0
    2.2313   -2.9283   34.9690 H   0  0  0  0  0  0  0  0  0  0  0  0
    3.9841   -3.0639   34.8311 H   0  0  0  0  0  0  0  0  0  0  0  0
    4.0191   -2.0395   32.7385 H   0  0  0  0  0  0  0  0  0  0  0  0
    2.4895   -1.3319   33.2690 H   0  0  0  0  0  0  0  0  0  0  0  0
    2.5079   -2.7384   30.9977 H   0  0  0  0  0  0  0  0  0  0  0  0
    1.2179   -3.0721   32.1763 H   0  0  0  0  0  0  0  0  0  0  0  0
    2.3199   -5.2570   31.7948 H   0  0  0  0  0  0  0  0  0  0  0  0
    3.9103   -4.5014   31.8900 H   0  0  0  0  0  0  0  0  0  0  0  0
  1  2  1  0
  2  3  1  0
  3  4  1  0
  4  5  1  0
  5  6  1  0
  6  7  1  0
  7  8  2  0
  7  9  1  0
  9 10  1  0
 10 11  2  0
 11 12  1  0
 12 13  1  0
 13 14  1  0
 14 15  1  0
 15 16  1  0
 16 17  1  0
 17 18  2  0
 17 19  2  0
 17 20  1  0
 20 21  1  0
 21 22  1  0
 22 23  1  0
 23 24  1  0
 13 25  1  0
  6  2  1  0
 25 10  1  0
 24 20  1  0
  1 26  1  0
  1 27  1  0
  1 28  1  0
  2 29  1  0
  3 30  1  0
  3 31  1  0
  4 32  1  0
  4 33  1  0
  6 34  1  0
  9 35  1  0
 11 36  1  0
 12 37  1  0
 14 38  1  0
 14 39  1  0
 15 40  1  0
 15 41  1  0
 16 42  1  0
 21 43  1  0
 21 44  1  0
 22 45  1  0
 22 46  1  0
 23 47  1  0
 23 48  1  0
 24 49  1  0
 24 50  1  0
M  END
>  <Energy>  (883) 
-48.326081309774843

>  <compound_id>  (883) 
2172

>  <target_id>  (883) 
1

>  <reference_id>  (883) 
40

>  <inspiration_ids>  (883) 
[40, 164]

>  <energy_score>  (883) 
-201.11338762523852

>  <distance_score>  (883) 
3.4169787587109854

>  <path>  (883) 
/opt/xchem-fragalysis-2/maxwin/BulkDock/SCRATCH/505732/C2172-P40/C2172-P40.minimised.mol

>  <scratch_subdir>  (883) 
/opt/xchem-fragalysis-2/maxwin/BulkDock/SCRATCH/505732/C2172-P40

>  <fragmenstein_runtime>  (883) 
8.753007650375366

>  <fragmenstein_outcome>  (883) 
too moved

>  <fragmenstein_mode>  (883) 
expansion

>  <fragmenstein_error>  (883) 


$$$$
C2172-P164
     RDKit          3D

 50 52  0  0  0  0  0  0  0  0999 V2000
   -0.7085   -5.8465   31.7730 C   0  0  0  0  0  0  0  0  0  0  0  0
   -0.8180   -4.3872   31.3307 C   0  0  0  0  0  0  0  0  0  0  0  0
   -0.3669   -4.2991   29.8718 C   0  0  0  0  0  0  0  0  0  0  0  0
    1.1161   -4.1162   29.9731 C   0  0  0  0  0  0  0  0  0  0  0  0
    1.3275   -3.4403   31.2192 O   0  0  0  0  0  0  0  0  0  0  0  0
    0.0733   -3.3077   31.9547 C   0  0  0  0  0  0  0  0  0  0  0  0
    0.2233   -2.9202   33.5353 C   0  0  0  0  0  0  0  0  0  0  0  0
    0.9378   -2.0300   33.8080 O   0  0  0  0  0  0  0  0  0  0  0  0
   -0.5642   -3.9027   34.4572 N   0  0  0  0  0  0  0  0  0  0  0  0
   -0.5580   -4.0417   35.8168 C   0  0  0  0  0  0  0  0  0  0  0  0
    0.0521   -3.3653   36.7931 C   0  0  0  0  0  0  0  0  0  0  0  0
    0.0408   -3.9596   38.0522 N   0  0  0  0  0  0  0  0  0  0  0  0
   -0.5482   -5.2536   38.0079 N   0  0  0  0  0  0  0  0  0  0  0  0
    0.4736   -6.2245   38.4250 C   0  0  0  0  0  0  0  0  0  0  0  0
    1.7338   -6.2381   37.5497 C   0  0  0  0  0  0  0  0  0  0  0  0
    1.6820   -7.2411   36.5035 N   0  0  0  0  0  0  0  0  0  0  0  0
    1.5952   -7.0445   34.8942 S   0  0  0  0  0  0  0  0  0  0  0  0
    0.2949   -6.6049   34.4748 O   0  0  0  0  0  0  0  0  0  0  0  0
    2.0847   -8.3217   34.4351 O   0  0  0  0  0  0  0  0  0  0  0  0
    2.7163   -5.9757   34.3511 N   0  0  0  0  0  0  0  0  0  0  0  0
    3.0205   -4.6880   34.9842 C   0  0  0  0  0  0  0  0  0  0  0  0
    3.7054   -3.8478   33.9008 C   0  0  0  0  0  0  0  0  0  0  0  0
    3.7273   -4.7211   32.6674 C   0  0  0  0  0  0  0  0  0  0  0  0
    2.5734   -5.6520   32.9220 C   0  0  0  0  0  0  0  0  0  0  0  0
   -1.3212   -5.4196   36.5343 S   0  0  0  0  0  0  0  0  0  0  0  0
   -1.2332   -6.5205   31.0900 H   0  0  0  0  0  0  0  0  0  0  0  0
    0.3115   -6.2204   31.7806 H   0  0  0  0  0  0  0  0  0  0  0  0
   -1.1783   -6.0127   32.7389 H   0  0  0  0  0  0  0  0  0  0  0  0
   -1.8525   -4.0608   31.4267 H   0  0  0  0  0  0  0  0  0  0  0  0
   -0.6196   -5.1628   29.2696 H   0  0  0  0  0  0  0  0  0  0  0  0
   -0.8202   -3.4179   29.4006 H   0  0  0  0  0  0  0  0  0  0  0  0
    1.6487   -5.0717   30.0076 H   0  0  0  0  0  0  0  0  0  0  0  0
    1.5258   -3.5175   29.1548 H   0  0  0  0  0  0  0  0  0  0  0  0
   -0.3407   -2.3563   31.5778 H   0  0  0  0  0  0  0  0  0  0  0  0
   -1.1485   -4.4977   33.8937 H   0  0  0  0  0  0  0  0  0  0  0  0
    0.6060   -2.4422   36.6807 H   0  0  0  0  0  0  0  0  0  0  0  0
   -0.3661   -3.3414   38.7590 H   0  0  0  0  0  0  0  0  0  0  0  0
    0.0286   -7.2256   38.4867 H   0  0  0  0  0  0  0  0  0  0  0  0
    0.7689   -5.9736   39.4530 H   0  0  0  0  0  0  0  0  0  0  0  0
    2.0184   -5.2542   37.1962 H   0  0  0  0  0  0  0  0  0  0  0  0
    2.5674   -6.5415   38.1977 H   0  0  0  0  0  0  0  0  0  0  0  0
    1.2445   -8.1151   36.7950 H   0  0  0  0  0  0  0  0  0  0  0  0
    2.1279   -4.1742   35.3224 H   0  0  0  0  0  0  0  0  0  0  0  0
    3.7058   -4.8351   35.8238 H   0  0  0  0  0  0  0  0  0  0  0  0
    3.1651   -2.9172   33.7203 H   0  0  0  0  0  0  0  0  0  0  0  0
    4.7195   -3.5623   34.2018 H   0  0  0  0  0  0  0  0  0  0  0  0
    3.6571   -4.1564   31.7363 H   0  0  0  0  0  0  0  0  0  0  0  0
    4.6798   -5.2598   32.6570 H   0  0  0  0  0  0  0  0  0  0  0  0
    2.5707   -6.5197   32.2766 H   0  0  0  0  0  0  0  0  0  0  0  0
    1.6419   -5.1180   32.8038 H   0  0  0  0  0  0  0  0  0  0  0  0
  1  2  1  0
  2  3  1  0
  3  4  1  0
  4  5  1  0
  5  6  1  0
  6  7  1  0
  7  8  2  0
  7  9  1  0
  9 10  1  0
 10 11  2  0
 11 12  1  0
 12 13  1  0
 13 14  1  0
 14 15  1  0
 15 16  1  0
 16 17  1  0
 17 18  2  0
 17 19  2  0
 17 20  1  0
 20 21  1  0
 21 22  1  0
 22 23  1  0
 23 24  1  0
 13 25  1  0
  6  2  1  0
 25 10  1  0
 24 20  1  0
  1 26  1  0
  1 27  1  0
  1 28  1  0
  2 29  1  0
  3 30  1  0
  3 31  1  0
  4 32  1  0
  4 33  1  0
  6 34  1  0
  9 35  1  0
 11 36  1  0
 12 37  1  0
 14 38  1  0
 14 39  1  0
 15 40  1  0
 15 41  1  0
 16 42  1  0
 21 43  1  0
 21 44  1  0
 22 45  1  0
 22 46  1  0
 23 47  1  0
 23 48  1  0
 24 49  1  0
 24 50  1  0
M  END
>  <Energy>  (884) 
-43.693401649102853

>  <compound_id>  (884) 
2172

>  <target_id>  (884) 
1

>  <reference_id>  (884) 
164

>  <inspiration_ids>  (884) 
[40, 164]

>  <energy_score>  (884) 
-196.4807079645629

>  <distance_score>  (884) 
3.424030289300073

>  <path>  (884) 
/opt/xchem-fragalysis-2/maxwin/BulkDock/SCRATCH/505732/C2172-P164/C2172-P164.minimised.mol

>  <scratch_subdir>  (884) 
/opt/xchem-fragalysis-2/maxwin/BulkDock/SCRATCH/505732/C2172-P164

>  <fragmenstein_runtime>  (884) 
9.212602615356445

>  <fragmenstein_outcome>  (884) 
too moved

>  <fragmenstein_mode>  (884) 
expansion

>  <fragmenstein_error>  (884) 


$$$$
C2174-P40
     RDKit          3D

 49 51  0  0  0  0  0  0  0  0999 V2000
   -4.1616   -1.3096   33.6726 C   0  0  0  0  0  0  0  0  0  0  0  0
   -2.7484   -1.3643   33.0845 C   0  0  0  0  0  0  0  0  0  0  0  0
   -2.2422    0.0410   32.8081 C   0  0  0  0  0  0  0  0  0  0  0  0
   -1.6587    0.4681   34.1389 C   0  0  0  0  0  0  0  0  0  0  0  0
   -1.3053   -0.7190   34.8623 O   0  0  0  0  0  0  0  0  0  0  0  0
   -1.7245   -1.8725   34.1016 C   0  0  0  0  0  0  0  0  0  0  0  0
   -0.4598   -2.4823   33.4299 C   0  0  0  0  0  0  0  0  0  0  0  0
   -0.2049   -2.2429   32.2771 O   0  0  0  0  0  0  0  0  0  0  0  0
    0.2833   -3.2118   34.4167 N   0  0  0  0  0  0  0  0  0  0  0  0
    1.7405   -3.8471   34.3598 C   0  0  0  0  0  0  0  0  0  0  0  0
    2.2987   -4.8423   33.3039 C   0  0  0  0  0  0  0  0  0  0  0  0
    2.0233   -4.5503   31.8192 C   0  0  0  0  0  0  0  0  0  0  0  0
    1.6445   -5.8314   31.1714 N   0  0  0  0  0  0  0  0  0  0  0  0
    1.0417   -5.7932   29.5902 S   0  0  0  0  0  0  0  0  0  0  0  0
   -0.2470   -5.1466   29.6427 O   0  0  0  0  0  0  0  0  0  0  0  0
    1.1543   -7.1424   29.0582 O   0  0  0  0  0  0  0  0  0  0  0  0
    2.0558   -4.8170   28.5762 C   0  0  0  0  0  0  0  0  0  0  0  0
    2.8119   -5.2879   27.4798 C   0  0  0  0  0  0  0  0  0  0  0  0
    3.4692   -4.1741   27.0116 C   0  0  0  0  0  0  0  0  0  0  0  0
    3.0827   -3.1397   27.8135 N   0  0  0  0  0  0  0  0  0  0  0  0
    3.4652   -1.7546   27.7161 C   0  0  0  0  0  0  0  0  0  0  0  0
    2.2611   -3.5105   28.8011 N   0  0  0  0  0  0  0  0  0  0  0  0
   -0.1070   -4.6565   34.3996 C   0  0  0  0  0  0  0  0  0  0  0  0
   -0.1061   -5.6226   35.4050 C   0  0  0  0  0  0  0  0  0  0  0  0
   -0.5645   -6.8782   35.0300 N   0  0  0  0  0  0  0  0  0  0  0  0
   -0.9985   -6.8868   33.7823 N   0  0  0  0  0  0  0  0  0  0  0  0
   -0.9549   -5.3777   33.0754 S   0  0  0  0  0  0  0  0  0  0  0  0
   -4.8465   -0.8042   32.9835 H   0  0  0  0  0  0  0  0  0  0  0  0
   -4.5541   -2.3148   33.8428 H   0  0  0  0  0  0  0  0  0  0  0  0
   -4.1908   -0.7749   34.6279 H   0  0  0  0  0  0  0  0  0  0  0  0
   -2.7790   -1.9695   32.1719 H   0  0  0  0  0  0  0  0  0  0  0  0
   -3.0061    0.7345   32.4436 H   0  0  0  0  0  0  0  0  0  0  0  0
   -1.4478    0.0136   32.0533 H   0  0  0  0  0  0  0  0  0  0  0  0
   -2.3928    1.0168   34.7379 H   0  0  0  0  0  0  0  0  0  0  0  0
   -0.7733    1.0993   34.0192 H   0  0  0  0  0  0  0  0  0  0  0  0
   -2.1496   -2.5950   34.8010 H   0  0  0  0  0  0  0  0  0  0  0  0
    2.0379   -4.1360   35.3816 H   0  0  0  0  0  0  0  0  0  0  0  0
    2.3282   -2.9319   34.1834 H   0  0  0  0  0  0  0  0  0  0  0  0
    3.3907   -4.8431   33.4345 H   0  0  0  0  0  0  0  0  0  0  0  0
    2.0154   -5.8684   33.5694 H   0  0  0  0  0  0  0  0  0  0  0  0
    2.9391   -4.1700   31.3567 H   0  0  0  0  0  0  0  0  0  0  0  0
    1.2357   -3.8240   31.6701 H   0  0  0  0  0  0  0  0  0  0  0  0
    0.9549   -6.3500   31.7223 H   0  0  0  0  0  0  0  0  0  0  0  0
    2.8789   -6.2951   27.0929 H   0  0  0  0  0  0  0  0  0  0  0  0
    4.1631   -4.0358   26.1930 H   0  0  0  0  0  0  0  0  0  0  0  0
    4.0194   -1.4849   28.6187 H   0  0  0  0  0  0  0  0  0  0  0  0
    4.0968   -1.6137   26.8356 H   0  0  0  0  0  0  0  0  0  0  0  0
    2.5603   -1.1484   27.6260 H   0  0  0  0  0  0  0  0  0  0  0  0
    0.2372   -5.4740   36.4205 H   0  0  0  0  0  0  0  0  0  0  0  0
  1  2  1  0
  2  3  1  0
  3  4  1  0
  4  5  1  0
  5  6  1  0
  6  7  1  0
  7  8  2  0
  7  9  1  0
  9 10  1  0
 10 11  1  0
 11 12  1  0
 12 13  1  0
 13 14  1  0
 14 15  2  0
 14 16  2  0
 14 17  1  0
 17 18  1  0
 18 19  2  0
 19 20  1  0
 20 21  1  0
 20 22  1  0
  9 23  1  0
 23 24  2  0
 24 25  1  0
 25 26  2  0
 26 27  1  0
  6  2  1  0
 22 17  2  0
 27 23  1  0
  1 28  1  0
  1 29  1  0
  1 30  1  0
  2 31  1  0
  3 32  1  0
  3 33  1  0
  4 34  1  0
  4 35  1  0
  6 36  1  0
 10 37  1  0
 10 38  1  0
 11 39  1  0
 11 40  1  0
 12 41  1  0
 12 42  1  0
 13 43  1  0
 18 44  1  0
 19 45  1  0
 21 46  1  0
 21 47  1  0
 21 48  1  0
 24 49  1  0
M  END
>  <Energy>  (885) 
171.22375908804202

>  <compound_id>  (885) 
2174

>  <target_id>  (885) 
1

>  <reference_id>  (885) 
40

>  <inspiration_ids>  (885) 
[40, 166]

>  <energy_score>  (885) 
-70.51337917592662

>  <distance_score>  (885) 
3.783704680375725

>  <path>  (885) 
/opt/xchem-fragalysis-2/maxwin/BulkDock/SCRATCH/505732/C2174-P40/C2174-P40.minimised.mol

>  <scratch_subdir>  (885) 
/opt/xchem-fragalysis-2/maxwin/BulkDock/SCRATCH/505732/C2174-P40

>  <fragmenstein_runtime>  (885) 
10.001961708068848

>  <fragmenstein_outcome>  (885) 
too moved

>  <fragmenstein_mode>  (885) 
expansion

>  <fragmenstein_error>  (885) 


$$$$
C2174-P166
     RDKit          3D

 49 51  0  0  0  0  0  0  0  0999 V2000
    3.8181   -1.4129   33.1533 C   0  0  0  0  0  0  0  0  0  0  0  0
    3.7570   -1.3514   34.6681 C   0  0  0  0  0  0  0  0  0  0  0  0
    4.8806   -2.0737   35.3800 C   0  0  0  0  0  0  0  0  0  0  0  0
    4.3560   -2.1428   36.8007 C   0  0  0  0  0  0  0  0  0  0  0  0
    2.9209   -2.1033   36.7386 O   0  0  0  0  0  0  0  0  0  0  0  0
    2.5196   -1.9111   35.3645 C   0  0  0  0  0  0  0  0  0  0  0  0
    1.9912   -3.2783   34.8471 C   0  0  0  0  0  0  0  0  0  0  0  0
    2.7006   -4.0232   34.2186 O   0  0  0  0  0  0  0  0  0  0  0  0
    0.6485   -3.4522   35.3280 N   0  0  0  0  0  0  0  0  0  0  0  0
   -0.3116   -4.7253   35.2978 C   0  0  0  0  0  0  0  0  0  0  0  0
   -0.4973   -5.6412   34.0546 C   0  0  0  0  0  0  0  0  0  0  0  0
    0.7928   -6.0116   33.3429 C   0  0  0  0  0  0  0  0  0  0  0  0
    0.6211   -7.1277   32.3995 N   0  0  0  0  0  0  0  0  0  0  0  0
   -0.1036   -6.8635   30.9015 S   0  0  0  0  0  0  0  0  0  0  0  0
   -1.5071   -6.7274   31.1983 O   0  0  0  0  0  0  0  0  0  0  0  0
    0.3524   -7.8901   29.9854 O   0  0  0  0  0  0  0  0  0  0  0  0
    0.4502   -5.3819   30.1564 C   0  0  0  0  0  0  0  0  0  0  0  0
    1.7450   -5.1907   29.6144 C   0  0  0  0  0  0  0  0  0  0  0  0
    1.7090   -3.9397   29.0432 C   0  0  0  0  0  0  0  0  0  0  0  0
    0.4451   -3.4662   29.2512 N   0  0  0  0  0  0  0  0  0  0  0  0
   -0.1050   -2.2134   28.7938 C   0  0  0  0  0  0  0  0  0  0  0  0
   -0.3132   -4.2930   29.9884 N   0  0  0  0  0  0  0  0  0  0  0  0
   -0.3389   -2.9598   34.3102 C   0  0  0  0  0  0  0  0  0  0  0  0
   -1.6659   -2.5494   34.4300 C   0  0  0  0  0  0  0  0  0  0  0  0
   -2.2669   -2.1030   33.2649 N   0  0  0  0  0  0  0  0  0  0  0  0
   -1.4041   -2.0368   32.2707 N   0  0  0  0  0  0  0  0  0  0  0  0
    0.1452   -2.4325   32.7354 S   0  0  0  0  0  0  0  0  0  0  0  0
    3.8528   -2.4355   32.7696 H   0  0  0  0  0  0  0  0  0  0  0  0
    4.7203   -0.9061   32.7932 H   0  0  0  0  0  0  0  0  0  0  0  0
    2.9560   -0.9055   32.7105 H   0  0  0  0  0  0  0  0  0  0  0  0
    3.8307   -0.2901   34.9490 H   0  0  0  0  0  0  0  0  0  0  0  0
    5.8419   -1.5553   35.3171 H   0  0  0  0  0  0  0  0  0  0  0  0
    5.0211   -3.0839   34.9794 H   0  0  0  0  0  0  0  0  0  0  0  0
    4.6848   -1.2776   37.3858 H   0  0  0  0  0  0  0  0  0  0  0  0
    4.6750   -3.0521   37.3181 H   0  0  0  0  0  0  0  0  0  0  0  0
    1.7079   -1.1754   35.3443 H   0  0  0  0  0  0  0  0  0  0  0  0
    0.2331   -5.3699   36.0072 H   0  0  0  0  0  0  0  0  0  0  0  0
   -1.2489   -4.5365   35.8445 H   0  0  0  0  0  0  0  0  0  0  0  0
   -0.9932   -6.5577   34.4027 H   0  0  0  0  0  0  0  0  0  0  0  0
   -1.1993   -5.1973   33.3415 H   0  0  0  0  0  0  0  0  0  0  0  0
    1.5325   -6.3456   34.0794 H   0  0  0  0  0  0  0  0  0  0  0  0
    1.2249   -5.1724   32.8009 H   0  0  0  0  0  0  0  0  0  0  0  0
    0.1315   -7.9171   32.8266 H   0  0  0  0  0  0  0  0  0  0  0  0
    2.5773   -5.8757   29.6097 H   0  0  0  0  0  0  0  0  0  0  0  0
    2.4478   -3.3658   28.5008 H   0  0  0  0  0  0  0  0  0  0  0  0
   -1.0691   -2.4051   28.3189 H   0  0  0  0  0  0  0  0  0  0  0  0
   -0.2293   -1.5532   29.6538 H   0  0  0  0  0  0  0  0  0  0  0  0
    0.5823   -1.7560   28.0791 H   0  0  0  0  0  0  0  0  0  0  0  0
   -2.2612   -2.5785   35.3329 H   0  0  0  0  0  0  0  0  0  0  0  0
  1  2  1  0
  2  3  1  0
  3  4  1  0
  4  5  1  0
  5  6  1  0
  6  7  1  0
  7  8  2  0
  7  9  1  0
  9 10  1  0
 10 11  1  0
 11 12  1  0
 12 13  1  0
 13 14  1  0
 14 15  2  0
 14 16  2  0
 14 17  1  0
 17 18  1  0
 18 19  2  0
 19 20  1  0
 20 21  1  0
 20 22  1  0
  9 23  1  0
 23 24  2  0
 24 25  1  0
 25 26  2  0
 26 27  1  0
  6  2  1  0
 22 17  2  0
 27 23  1  0
  1 28  1  0
  1 29  1  0
  1 30  1  0
  2 31  1  0
  3 32  1  0
  3 33  1  0
  4 34  1  0
  4 35  1  0
  6 36  1  0
 10 37  1  0
 10 38  1  0
 11 39  1  0
 11 40  1  0
 12 41  1  0
 12 42  1  0
 13 43  1  0
 18 44  1  0
 19 45  1  0
 21 46  1  0
 21 47  1  0
 21 48  1  0
 24 49  1  0
M  END
>  <Energy>  (886) 
168.50051469235234

>  <compound_id>  (886) 
2174

>  <target_id>  (886) 
1

>  <reference_id>  (886) 
166

>  <inspiration_ids>  (886) 
[40, 166]

>  <energy_score>  (886) 
-73.23662357161498

>  <distance_score>  (886) 
4.107794145701976

>  <path>  (886) 
/opt/xchem-fragalysis-2/maxwin/BulkDock/SCRATCH/505732/C2174-P166/C2174-P166.minimised.mol

>  <scratch_subdir>  (886) 
/opt/xchem-fragalysis-2/maxwin/BulkDock/SCRATCH/505732/C2174-P166

>  <fragmenstein_runtime>  (886) 
18.431575298309326

>  <fragmenstein_outcome>  (886) 
too moved

>  <fragmenstein_mode>  (886) 
expansion

>  <fragmenstein_error>  (886) 


$$$$
C2177-P40
     RDKit          3D

 51 53  0  0  0  0  0  0  0  0999 V2000
    0.5328   -3.4153   34.6564 C   0  0  0  0  0  0  0  0  0  0  0  0
    0.5691   -4.5538   33.6531 C   0  0  0  0  0  0  0  0  0  0  0  0
    1.8280   -4.6642   32.8154 C   0  0  0  0  0  0  0  0  0  0  0  0
    1.3695   -5.6085   31.7367 C   0  0  0  0  0  0  0  0  0  0  0  0
    0.0245   -5.2572   31.4325 O   0  0  0  0  0  0  0  0  0  0  0  0
   -0.5582   -4.6530   32.6387 C   0  0  0  0  0  0  0  0  0  0  0  0
   -1.2971   -3.4311   32.0731 C   0  0  0  0  0  0  0  0  0  0  0  0
   -2.4361   -3.4967   31.8161 O   0  0  0  0  0  0  0  0  0  0  0  0
   -0.2808   -2.2824   31.8471 N   0  0  0  0  0  0  0  0  0  0  0  0
   -0.4231   -1.0985   31.2166 C   0  0  0  0  0  0  0  0  0  0  0  0
    0.6326   -0.3304   30.9066 C   0  0  0  0  0  0  0  0  0  0  0  0
    0.6874   -0.0130   29.5365 N   0  0  0  0  0  0  0  0  0  0  0  0
   -0.2554   -0.9001   28.8231 N   0  0  0  0  0  0  0  0  0  0  0  0
    0.5286   -2.1349   28.4842 C   0  0  0  0  0  0  0  0  0  0  0  0
   -0.2632   -3.4323   28.2549 C   0  0  0  0  0  0  0  0  0  0  0  0
    0.4099   -4.6771   28.5687 N   0  0  0  0  0  0  0  0  0  0  0  0
    1.6493   -5.4368   27.8467 S   0  0  0  0  0  0  0  0  0  0  0  0
    1.5706   -6.7796   28.3864 O   0  0  0  0  0  0  0  0  0  0  0  0
    1.7438   -5.2050   26.4307 O   0  0  0  0  0  0  0  0  0  0  0  0
    2.9605   -4.6732   28.5171 N   0  0  0  0  0  0  0  0  0  0  0  0
    4.1273   -5.6006   28.6184 C   0  0  0  0  0  0  0  0  0  0  0  0
    5.3820   -4.7972   28.9111 C   0  0  0  0  0  0  0  0  0  0  0  0
    5.7363   -3.9186   27.8407 O   0  0  0  0  0  0  0  0  0  0  0  0
    4.6354   -3.5497   27.0065 C   0  0  0  0  0  0  0  0  0  0  0  0
    3.3606   -3.3885   27.8229 C   0  0  0  0  0  0  0  0  0  0  0  0
   -1.5475   -1.0659   29.8947 S   0  0  0  0  0  0  0  0  0  0  0  0
    0.7642   -2.4437   34.2145 H   0  0  0  0  0  0  0  0  0  0  0  0
   -0.4501   -3.3515   35.1345 H   0  0  0  0  0  0  0  0  0  0  0  0
    1.2756   -3.5870   35.4435 H   0  0  0  0  0  0  0  0  0  0  0  0
    0.5184   -5.4762   34.2530 H   0  0  0  0  0  0  0  0  0  0  0  0
    2.1467   -3.7088   32.3916 H   0  0  0  0  0  0  0  0  0  0  0  0
    2.6744   -5.0669   33.3804 H   0  0  0  0  0  0  0  0  0  0  0  0
    1.3458   -6.6310   32.1194 H   0  0  0  0  0  0  0  0  0  0  0  0
    1.9974   -5.5613   30.8514 H   0  0  0  0  0  0  0  0  0  0  0  0
   -1.3134   -5.3535   33.0111 H   0  0  0  0  0  0  0  0  0  0  0  0
    0.6360   -2.5894   32.1124 H   0  0  0  0  0  0  0  0  0  0  0  0
    1.5958   -0.3237   31.3990 H   0  0  0  0  0  0  0  0  0  0  0  0
    0.3933    0.9592   29.3986 H   0  0  0  0  0  0  0  0  0  0  0  0
    1.2692   -2.3442   29.2661 H   0  0  0  0  0  0  0  0  0  0  0  0
    1.0776   -1.8718   27.5822 H   0  0  0  0  0  0  0  0  0  0  0  0
   -1.1101   -3.4558   28.9474 H   0  0  0  0  0  0  0  0  0  0  0  0
   -0.7389   -3.4552   27.3093 H   0  0  0  0  0  0  0  0  0  0  0  0
    0.2249   -5.0124   29.5194 H   0  0  0  0  0  0  0  0  0  0  0  0
    3.9537   -6.3051   29.4338 H   0  0  0  0  0  0  0  0  0  0  0  0
    4.2565   -6.1651   27.6867 H   0  0  0  0  0  0  0  0  0  0  0  0
    6.2316   -5.4664   29.0800 H   0  0  0  0  0  0  0  0  0  0  0  0
    5.2581   -4.1924   29.8171 H   0  0  0  0  0  0  0  0  0  0  0  0
    4.8955   -2.6074   26.5139 H   0  0  0  0  0  0  0  0  0  0  0  0
    4.5206   -4.3072   26.2228 H   0  0  0  0  0  0  0  0  0  0  0  0
    3.5072   -2.6343   28.6045 H   0  0  0  0  0  0  0  0  0  0  0  0
    2.5913   -3.0355   27.1478 H   0  0  0  0  0  0  0  0  0  0  0  0
  1  2  1  0
  2  3  1  0
  3  4  1  0
  4  5  1  0
  5  6  1  0
  6  7  1  0
  7  8  2  0
  7  9  1  0
  9 10  1  0
 10 11  2  0
 11 12  1  0
 12 13  1  0
 13 14  1  0
 14 15  1  0
 15 16  1  0
 16 17  1  0
 17 18  2  0
 17 19  2  0
 17 20  1  0
 20 21  1  0
 21 22  1  0
 22 23  1  0
 23 24  1  0
 24 25  1  0
 13 26  1  0
  6  2  1  0
 26 10  1  0
 25 20  1  0
  1 27  1  0
  1 28  1  0
  1 29  1  0
  2 30  1  0
  3 31  1  0
  3 32  1  0
  4 33  1  0
  4 34  1  0
  6 35  1  0
  9 36  1  0
 11 37  1  0
 12 38  1  0
 14 39  1  0
 14 40  1  0
 15 41  1  0
 15 42  1  0
 16 43  1  0
 21 44  1  0
 21 45  1  0
 22 46  1  0
 22 47  1  0
 24 48  1  0
 24 49  1  0
 25 50  1  0
 25 51  1  0
M  END
>  <Energy>  (887) 
6.9109314590557638

>  <compound_id>  (887) 
2177

>  <target_id>  (887) 
1

>  <reference_id>  (887) 
40

>  <inspiration_ids>  (887) 
[40, 177]

>  <energy_score>  (887) 
-358.7507578748131

>  <distance_score>  (887) 
3.1360854031344534

>  <path>  (887) 
/opt/xchem-fragalysis-2/maxwin/BulkDock/SCRATCH/505732/C2177-P40/C2177-P40.minimised.mol

>  <scratch_subdir>  (887) 
/opt/xchem-fragalysis-2/maxwin/BulkDock/SCRATCH/505732/C2177-P40

>  <fragmenstein_runtime>  (887) 
13.073031902313232

>  <fragmenstein_outcome>  (887) 
too moved

>  <fragmenstein_mode>  (887) 
expansion

>  <fragmenstein_error>  (887) 


$$$$
C2177-P177
     RDKit          3D

 51 53  0  0  0  0  0  0  0  0999 V2000
    2.1272   -2.2626   33.5576 C   0  0  0  0  0  0  0  0  0  0  0  0
    1.6873   -3.6729   33.2035 C   0  0  0  0  0  0  0  0  0  0  0  0
    2.1461   -4.1998   31.8558 C   0  0  0  0  0  0  0  0  0  0  0  0
    1.2974   -5.4481   31.7047 C   0  0  0  0  0  0  0  0  0  0  0  0
    0.3391   -5.4443   32.7820 O   0  0  0  0  0  0  0  0  0  0  0  0
    0.2086   -4.0390   33.2327 C   0  0  0  0  0  0  0  0  0  0  0  0
   -0.8190   -3.5543   32.1830 C   0  0  0  0  0  0  0  0  0  0  0  0
   -1.7750   -4.1949   31.9716 O   0  0  0  0  0  0  0  0  0  0  0  0
   -0.3000   -2.2662   31.4931 N   0  0  0  0  0  0  0  0  0  0  0  0
   -0.7610   -1.6079   30.4256 C   0  0  0  0  0  0  0  0  0  0  0  0
   -0.3570   -0.4780   29.8415 C   0  0  0  0  0  0  0  0  0  0  0  0
   -0.7271   -0.3883   28.4939 N   0  0  0  0  0  0  0  0  0  0  0  0
   -1.0277   -1.7143   28.0467 N   0  0  0  0  0  0  0  0  0  0  0  0
   -1.5251   -1.8417   26.6975 C   0  0  0  0  0  0  0  0  0  0  0  0
   -0.9897   -3.0616   25.8964 C   0  0  0  0  0  0  0  0  0  0  0  0
    0.4559   -3.2274   26.0034 N   0  0  0  0  0  0  0  0  0  0  0  0
    1.0526   -4.1007   27.3179 S   0  0  0  0  0  0  0  0  0  0  0  0
    1.3238   -3.2901   28.4651 O   0  0  0  0  0  0  0  0  0  0  0  0
    0.3405   -5.3440   27.4528 O   0  0  0  0  0  0  0  0  0  0  0  0
    2.5263   -4.3849   26.5636 N   0  0  0  0  0  0  0  0  0  0  0  0
    3.4479   -5.2857   27.2987 C   0  0  0  0  0  0  0  0  0  0  0  0
    4.2592   -4.5055   28.3392 C   0  0  0  0  0  0  0  0  0  0  0  0
    4.9499   -3.3849   27.7830 O   0  0  0  0  0  0  0  0  0  0  0  0
    4.0390   -2.4809   27.1499 C   0  0  0  0  0  0  0  0  0  0  0  0
    3.2799   -3.1936   26.0438 C   0  0  0  0  0  0  0  0  0  0  0  0
   -1.6136   -2.5897   29.3031 S   0  0  0  0  0  0  0  0  0  0  0  0
    1.4405   -1.8016   34.2740 H   0  0  0  0  0  0  0  0  0  0  0  0
    3.1184   -2.2930   34.0257 H   0  0  0  0  0  0  0  0  0  0  0  0
    2.2344   -1.6091   32.6874 H   0  0  0  0  0  0  0  0  0  0  0  0
    2.1638   -4.3159   33.9622 H   0  0  0  0  0  0  0  0  0  0  0  0
    1.9621   -3.4973   31.0399 H   0  0  0  0  0  0  0  0  0  0  0  0
    3.2161   -4.4307   31.8406 H   0  0  0  0  0  0  0  0  0  0  0  0
    0.7837   -5.5042   30.7409 H   0  0  0  0  0  0  0  0  0  0  0  0
    1.9004   -6.3355   31.8619 H   0  0  0  0  0  0  0  0  0  0  0  0
   -0.2346   -4.0252   34.2319 H   0  0  0  0  0  0  0  0  0  0  0  0
    0.5077   -1.9317   31.9756 H   0  0  0  0  0  0  0  0  0  0  0  0
    0.3396    0.2524   30.2243 H   0  0  0  0  0  0  0  0  0  0  0  0
   -0.0057    0.0795   27.9378 H   0  0  0  0  0  0  0  0  0  0  0  0
   -2.6166   -1.8277   26.6635 H   0  0  0  0  0  0  0  0  0  0  0  0
   -1.2426   -0.9386   26.1819 H   0  0  0  0  0  0  0  0  0  0  0  0
   -1.4504   -4.0139   26.1228 H   0  0  0  0  0  0  0  0  0  0  0  0
   -1.2264   -2.8873   24.8395 H   0  0  0  0  0  0  0  0  0  0  0  0
    0.8464   -3.6245   25.1441 H   0  0  0  0  0  0  0  0  0  0  0  0
    2.9031   -6.1041   27.7739 H   0  0  0  0  0  0  0  0  0  0  0  0
    4.1243   -5.7359   26.5620 H   0  0  0  0  0  0  0  0  0  0  0  0
    5.0383   -5.1545   28.7471 H   0  0  0  0  0  0  0  0  0  0  0  0
    3.6382   -4.1598   29.1705 H   0  0  0  0  0  0  0  0  0  0  0  0
    3.3831   -2.0354   27.9032 H   0  0  0  0  0  0  0  0  0  0  0  0
    4.6346   -1.6683   26.7208 H   0  0  0  0  0  0  0  0  0  0  0  0
    2.6464   -2.4873   25.5044 H   0  0  0  0  0  0  0  0  0  0  0  0
    3.9983   -3.5727   25.3078 H   0  0  0  0  0  0  0  0  0  0  0  0
  1  2  1  0
  2  3  1  0
  3  4  1  0
  4  5  1  0
  5  6  1  0
  6  7  1  0
  7  8  2  0
  7  9  1  0
  9 10  1  0
 10 11  2  0
 11 12  1  0
 12 13  1  0
 13 14  1  0
 14 15  1  0
 15 16  1  0
 16 17  1  0
 17 18  2  0
 17 19  2  0
 17 20  1  0
 20 21  1  0
 21 22  1  0
 22 23  1  0
 23 24  1  0
 24 25  1  0
 13 26  1  0
  6  2  1  0
 26 10  1  0
 25 20  1  0
  1 27  1  0
  1 28  1  0
  1 29  1  0
  2 30  1  0
  3 31  1  0
  3 32  1  0
  4 33  1  0
  4 34  1  0
  6 35  1  0
  9 36  1  0
 11 37  1  0
 12 38  1  0
 14 39  1  0
 14 40  1  0
 15 41  1  0
 15 42  1  0
 16 43  1  0
 21 44  1  0
 21 45  1  0
 22 46  1  0
 22 47  1  0
 24 48  1  0
 24 49  1  0
 25 50  1  0
 25 51  1  0
M  END
>  <Energy>  (888) 
-1.4549645544912124

>  <compound_id>  (888) 
2177

>  <target_id>  (888) 
1

>  <reference_id>  (888) 
177

>  <inspiration_ids>  (888) 
[40, 177]

>  <energy_score>  (888) 
-367.11665388836093

>  <distance_score>  (888) 
2.7414015893783503

>  <path>  (888) 
/opt/xchem-fragalysis-2/maxwin/BulkDock/SCRATCH/505732/C2177-P177/C2177-P177.minimised.mol

>  <scratch_subdir>  (888) 
/opt/xchem-fragalysis-2/maxwin/BulkDock/SCRATCH/505732/C2177-P177

>  <fragmenstein_runtime>  (888) 
8.798380374908447

>  <fragmenstein_outcome>  (888) 
too moved

>  <fragmenstein_mode>  (888) 
expansion

>  <fragmenstein_error>  (888) 


$$$$
C2185-P40
     RDKit          3D

 51 53  0  0  0  0  0  0  0  0999 V2000
    0.1851   -7.9504   29.5357 C   0  0  0  0  0  0  0  0  0  0  0  0
    1.3040   -7.2654   28.9432 O   0  0  0  0  0  0  0  0  0  0  0  0
    1.0570   -5.9350   28.7716 C   0  0  0  0  0  0  0  0  0  0  0  0
   -0.0792   -5.4807   28.8550 O   0  0  0  0  0  0  0  0  0  0  0  0
    2.3048   -5.0831   28.5190 C   0  0  0  0  0  0  0  0  0  0  0  0
    2.2466   -3.8055   29.2832 N   0  0  0  0  0  0  0  0  0  0  0  0
    1.5963   -3.9889   30.5360 C   0  0  0  0  0  0  0  0  0  0  0  0
    0.2601   -3.6723   30.7848 C   0  0  0  0  0  0  0  0  0  0  0  0
   -0.4597   -4.3399   31.7727 C   0  0  0  0  0  0  0  0  0  0  0  0
    0.1672   -5.2744   32.5759 C   0  0  0  0  0  0  0  0  0  0  0  0
   -0.6045   -6.1482   33.3974 C   0  0  0  0  0  0  0  0  0  0  0  0
   -1.2332   -6.9221   33.9870 N   0  0  0  0  0  0  0  0  0  0  0  0
    1.5480   -5.3931   32.5093 C   0  0  0  0  0  0  0  0  0  0  0  0
    2.2556   -4.7334   31.5041 C   0  0  0  0  0  0  0  0  0  0  0  0
    2.1477   -2.6533   28.4892 C   0  0  0  0  0  0  0  0  0  0  0  0
    0.9235   -2.1423   28.1223 C   0  0  0  0  0  0  0  0  0  0  0  0
    0.8409   -0.8203   27.7465 C   0  0  0  0  0  0  0  0  0  0  0  0
   -0.3943   -0.1611   27.6427 N   0  0  0  0  0  0  0  0  0  0  0  0
   -0.3099    1.2789   27.8920 C   0  0  0  0  0  0  0  0  0  0  0  0
    0.0303    1.5072   29.3686 C   0  0  0  0  0  0  0  0  0  0  0  0
   -0.5030    0.4011   30.2966 C   0  0  0  0  0  0  0  0  0  0  0  0
   -1.7036   -0.3642   29.7331 C   0  0  0  0  0  0  0  0  0  0  0  0
   -1.5935   -0.7425   28.2474 C   0  0  0  0  0  0  0  0  0  0  0  0
    1.9727   -0.1306   27.5201 N   0  0  0  0  0  0  0  0  0  0  0  0
    3.1468   -0.7466   27.7342 C   0  0  0  0  0  0  0  0  0  0  0  0
    4.4180    0.0149   27.4248 C   0  0  0  0  0  0  0  0  0  0  0  0
    5.5515   -0.5263   28.1159 O   0  0  0  0  0  0  0  0  0  0  0  0
    3.2819   -1.9879   28.2412 N   0  0  0  0  0  0  0  0  0  0  0  0
    0.2239   -7.8399   30.6220 H   0  0  0  0  0  0  0  0  0  0  0  0
    0.2534   -9.0044   29.2795 H   0  0  0  0  0  0  0  0  0  0  0  0
   -0.7851   -7.6080   29.1725 H   0  0  0  0  0  0  0  0  0  0  0  0
    2.4020   -4.9237   27.4387 H   0  0  0  0  0  0  0  0  0  0  0  0
    3.1865   -5.6448   28.8510 H   0  0  0  0  0  0  0  0  0  0  0  0
   -0.3139   -3.0211   30.1434 H   0  0  0  0  0  0  0  0  0  0  0  0
   -1.5185   -4.1374   31.8697 H   0  0  0  0  0  0  0  0  0  0  0  0
    2.0774   -6.0414   33.2034 H   0  0  0  0  0  0  0  0  0  0  0  0
    3.3319   -4.8394   31.4206 H   0  0  0  0  0  0  0  0  0  0  0  0
    0.0458   -2.7607   28.1966 H   0  0  0  0  0  0  0  0  0  0  0  0
    0.4096    1.7813   27.2337 H   0  0  0  0  0  0  0  0  0  0  0  0
   -1.2802    1.7419   27.6680 H   0  0  0  0  0  0  0  0  0  0  0  0
    1.1197    1.5565   29.4956 H   0  0  0  0  0  0  0  0  0  0  0  0
   -0.3209    2.4974   29.6693 H   0  0  0  0  0  0  0  0  0  0  0  0
    0.3062   -0.3154   30.4868 H   0  0  0  0  0  0  0  0  0  0  0  0
   -0.7452    0.8194   31.2795 H   0  0  0  0  0  0  0  0  0  0  0  0
   -2.5963    0.2534   29.8599 H   0  0  0  0  0  0  0  0  0  0  0  0
   -1.8872   -1.2618   30.3339 H   0  0  0  0  0  0  0  0  0  0  0  0
   -2.4589   -0.3304   27.7159 H   0  0  0  0  0  0  0  0  0  0  0  0
   -1.6939   -1.8201   28.1018 H   0  0  0  0  0  0  0  0  0  0  0  0
    4.3119    1.0634   27.7176 H   0  0  0  0  0  0  0  0  0  0  0  0
    4.6164   -0.0382   26.3501 H   0  0  0  0  0  0  0  0  0  0  0  0
    5.2554   -1.3998   28.4420 H   0  0  0  0  0  0  0  0  0  0  0  0
  1  2  1  0
  2  3  1  0
  3  4  2  0
  3  5  1  0
  5  6  1  0
  6  7  1  0
  7  8  2  0
  8  9  1  0
  9 10  2  0
 10 11  1  0
 11 12  3  0
 10 13  1  0
 13 14  2  0
  6 15  1  0
 15 16  2  0
 16 17  1  0
 17 18  1  0
 18 19  1  0
 19 20  1  0
 20 21  1  0
 21 22  1  0
 22 23  1  0
 17 24  2  0
 24 25  1  0
 25 26  1  0
 26 27  1  0
 25 28  2  0
 14  7  1  0
 28 15  1  0
 23 18  1  0
  1 29  1  0
  1 30  1  0
  1 31  1  0
  5 32  1  0
  5 33  1  0
  8 34  1  0
  9 35  1  0
 13 36  1  0
 14 37  1  0
 16 38  1  0
 19 39  1  0
 19 40  1  0
 20 41  1  0
 20 42  1  0
 21 43  1  0
 21 44  1  0
 22 45  1  0
 22 46  1  0
 23 47  1  0
 23 48  1  0
 26 49  1  0
 26 50  1  0
 27 51  1  0
M  END
>  <Energy>  (889) 
66.632678068521244

>  <compound_id>  (889) 
2185

>  <target_id>  (889) 
1

>  <reference_id>  (889) 
40

>  <inspiration_ids>  (889) 
[40, 199]

>  <energy_score>  (889) 
-2.235463080876343

>  <distance_score>  (889) 
2.173015211311088

>  <path>  (889) 
/opt/xchem-fragalysis-2/maxwin/BulkDock/SCRATCH/505732/C2185-P40/C2185-P40.minimised.mol

>  <scratch_subdir>  (889) 
/opt/xchem-fragalysis-2/maxwin/BulkDock/SCRATCH/505732/C2185-P40

>  <fragmenstein_runtime>  (889) 
9.653825759887695

>  <fragmenstein_outcome>  (889) 
too moved

>  <fragmenstein_mode>  (889) 
expansion

>  <fragmenstein_error>  (889) 


$$$$
C2185-P199
     RDKit          3D

 51 53  0  0  0  0  0  0  0  0999 V2000
    0.4769   -7.5437   29.8943 C   0  0  0  0  0  0  0  0  0  0  0  0
    1.3238   -6.3619   29.7440 O   0  0  0  0  0  0  0  0  0  0  0  0
    2.3045   -6.1332   28.8265 C   0  0  0  0  0  0  0  0  0  0  0  0
    2.7882   -7.0242   28.1364 O   0  0  0  0  0  0  0  0  0  0  0  0
    2.7813   -4.6653   28.7451 C   0  0  0  0  0  0  0  0  0  0  0  0
    1.6689   -3.7152   28.9251 N   0  0  0  0  0  0  0  0  0  0  0  0
    1.0684   -3.8356   30.2061 C   0  0  0  0  0  0  0  0  0  0  0  0
   -0.2260   -4.3416   30.2510 C   0  0  0  0  0  0  0  0  0  0  0  0
   -0.6212   -5.0122   31.3961 C   0  0  0  0  0  0  0  0  0  0  0  0
    0.1661   -5.0419   32.5370 C   0  0  0  0  0  0  0  0  0  0  0  0
   -0.2073   -5.9548   33.5704 C   0  0  0  0  0  0  0  0  0  0  0  0
   -0.5078   -6.7918   34.3129 N   0  0  0  0  0  0  0  0  0  0  0  0
    1.3499   -4.3168   32.5632 C   0  0  0  0  0  0  0  0  0  0  0  0
    1.8088   -3.7168   31.3890 C   0  0  0  0  0  0  0  0  0  0  0  0
    1.8371   -2.4158   28.4065 C   0  0  0  0  0  0  0  0  0  0  0  0
    0.6731   -1.6820   28.2817 C   0  0  0  0  0  0  0  0  0  0  0  0
    0.7308   -0.3651   27.9146 C   0  0  0  0  0  0  0  0  0  0  0  0
   -0.4338    0.4216   27.8721 N   0  0  0  0  0  0  0  0  0  0  0  0
   -0.2221    1.7342   28.4721 C   0  0  0  0  0  0  0  0  0  0  0  0
    0.0365    1.5611   29.9720 C   0  0  0  0  0  0  0  0  0  0  0  0
   -0.6847    0.3610   30.6107 C   0  0  0  0  0  0  0  0  0  0  0  0
   -1.8433   -0.2433   29.8065 C   0  0  0  0  0  0  0  0  0  0  0  0
   -1.7187   -0.1585   28.2769 C   0  0  0  0  0  0  0  0  0  0  0  0
    1.9260    0.1805   27.6315 N   0  0  0  0  0  0  0  0  0  0  0  0
    3.0182   -0.6128   27.6890 C   0  0  0  0  0  0  0  0  0  0  0  0
    4.3428   -0.0188   27.2539 C   0  0  0  0  0  0  0  0  0  0  0  0
    5.4570   -0.7931   27.7216 O   0  0  0  0  0  0  0  0  0  0  0  0
    3.0305   -1.9108   28.0804 N   0  0  0  0  0  0  0  0  0  0  0  0
    0.4454   -7.8187   30.9528 H   0  0  0  0  0  0  0  0  0  0  0  0
   -0.5508   -7.2870   29.6385 H   0  0  0  0  0  0  0  0  0  0  0  0
    0.8248   -8.3887   29.2933 H   0  0  0  0  0  0  0  0  0  0  0  0
    3.1935   -4.5488   27.7340 H   0  0  0  0  0  0  0  0  0  0  0  0
    3.5960   -4.5123   29.4619 H   0  0  0  0  0  0  0  0  0  0  0  0
   -0.8017   -4.4217   29.3327 H   0  0  0  0  0  0  0  0  0  0  0  0
   -1.4602   -5.6803   31.3559 H   0  0  0  0  0  0  0  0  0  0  0  0
    1.9744   -4.3026   33.4540 H   0  0  0  0  0  0  0  0  0  0  0  0
    2.7941   -3.2549   31.3774 H   0  0  0  0  0  0  0  0  0  0  0  0
   -0.2676   -2.1664   28.4884 H   0  0  0  0  0  0  0  0  0  0  0  0
    0.5936    2.2903   27.9935 H   0  0  0  0  0  0  0  0  0  0  0  0
   -1.1183    2.3501   28.3230 H   0  0  0  0  0  0  0  0  0  0  0  0
    1.1144    1.4281   30.1382 H   0  0  0  0  0  0  0  0  0  0  0  0
   -0.1992    2.4911   30.4980 H   0  0  0  0  0  0  0  0  0  0  0  0
    0.0589   -0.4287   30.7806 H   0  0  0  0  0  0  0  0  0  0  0  0
   -1.0307    0.6271   31.6161 H   0  0  0  0  0  0  0  0  0  0  0  0
   -2.7730    0.2514   30.1032 H   0  0  0  0  0  0  0  0  0  0  0  0
   -1.9763   -1.2909   30.1046 H   0  0  0  0  0  0  0  0  0  0  0  0
   -2.5115    0.5029   27.9029 H   0  0  0  0  0  0  0  0  0  0  0  0
   -1.9278   -1.1187   27.7915 H   0  0  0  0  0  0  0  0  0  0  0  0
    4.4482    0.9977   27.6434 H   0  0  0  0  0  0  0  0  0  0  0  0
    4.3826    0.0085   26.1610 H   0  0  0  0  0  0  0  0  0  0  0  0
    5.0650   -1.6369   28.0190 H   0  0  0  0  0  0  0  0  0  0  0  0
  1  2  1  0
  2  3  1  0
  3  4  2  0
  3  5  1  0
  5  6  1  0
  6  7  1  0
  7  8  2  0
  8  9  1  0
  9 10  2  0
 10 11  1  0
 11 12  3  0
 10 13  1  0
 13 14  2  0
  6 15  1  0
 15 16  2  0
 16 17  1  0
 17 18  1  0
 18 19  1  0
 19 20  1  0
 20 21  1  0
 21 22  1  0
 22 23  1  0
 17 24  2  0
 24 25  1  0
 25 26  1  0
 26 27  1  0
 25 28  2  0
 14  7  1  0
 28 15  1  0
 23 18  1  0
  1 29  1  0
  1 30  1  0
  1 31  1  0
  5 32  1  0
  5 33  1  0
  8 34  1  0
  9 35  1  0
 13 36  1  0
 14 37  1  0
 16 38  1  0
 19 39  1  0
 19 40  1  0
 20 41  1  0
 20 42  1  0
 21 43  1  0
 21 44  1  0
 22 45  1  0
 22 46  1  0
 23 47  1  0
 23 48  1  0
 26 49  1  0
 26 50  1  0
 27 51  1  0
M  END
>  <Energy>  (890) 
69.136850481227413

>  <compound_id>  (890) 
2185

>  <target_id>  (890) 
1

>  <reference_id>  (890) 
199

>  <inspiration_ids>  (890) 
[40, 199]

>  <energy_score>  (890) 
0.26870933183028

>  <distance_score>  (890) 
2.013312499825621

>  <path>  (890) 
/opt/xchem-fragalysis-2/maxwin/BulkDock/SCRATCH/505732/C2185-P199/C2185-P199.minimised.mol

>  <scratch_subdir>  (890) 
/opt/xchem-fragalysis-2/maxwin/BulkDock/SCRATCH/505732/C2185-P199

>  <fragmenstein_runtime>  (890) 
15.60665774345398

>  <fragmenstein_outcome>  (890) 
too moved

>  <fragmenstein_mode>  (890) 
expansion

>  <fragmenstein_error>  (890) 


$$$$
C2186-P40
     RDKit          3D

 35 36  0  0  0  0  0  0  0  0999 V2000
    3.6587   -2.8279   27.5875 C   0  0  0  0  0  0  0  0  0  0  0  0
    3.8395   -3.9567   26.7380 O   0  0  0  0  0  0  0  0  0  0  0  0
    4.2279   -5.1787   27.3958 C   0  0  0  0  0  0  0  0  0  0  0  0
    3.2919   -5.4829   28.5743 C   0  0  0  0  0  0  0  0  0  0  0  0
    1.9118   -5.3248   28.1766 O   0  0  0  0  0  0  0  0  0  0  0  0
    1.1294   -5.4244   29.3012 C   0  0  0  0  0  0  0  0  0  0  0  0
    0.8724   -4.2974   30.0775 C   0  0  0  0  0  0  0  0  0  0  0  0
    0.2103   -4.4511   31.2933 C   0  0  0  0  0  0  0  0  0  0  0  0
   -0.1980   -5.7243   31.7021 C   0  0  0  0  0  0  0  0  0  0  0  0
   -0.7147   -5.9407   33.0122 C   0  0  0  0  0  0  0  0  0  0  0  0
   -1.0888   -6.1712   34.0821 N   0  0  0  0  0  0  0  0  0  0  0  0
   -0.0298   -6.8294   30.8668 C   0  0  0  0  0  0  0  0  0  0  0  0
    0.6056   -6.6788   29.6424 C   0  0  0  0  0  0  0  0  0  0  0  0
    0.9388   -7.8265   28.8894 N   0  0  0  0  0  0  0  0  0  0  0  0
    5.7138   -5.1708   27.7263 C   0  0  0  0  0  0  0  0  0  0  0  0
    6.5715   -4.1138   27.4322 C   0  0  0  0  0  0  0  0  0  0  0  0
    8.1537   -4.4605   27.9532 S   0  0  0  0  0  0  0  0  0  0  0  0
    7.8069   -5.9743   28.4993 N   0  0  0  0  0  0  0  0  0  0  0  0
    6.5240   -6.2472   28.2582 C   0  0  0  0  0  0  0  0  0  0  0  0
    6.0980   -7.6349   28.5450 C   0  0  0  0  0  0  0  0  0  0  0  0
    3.8220   -1.9280   26.9876 H   0  0  0  0  0  0  0  0  0  0  0  0
    2.6287   -2.7967   27.9476 H   0  0  0  0  0  0  0  0  0  0  0  0
    4.3508   -2.8073   28.4336 H   0  0  0  0  0  0  0  0  0  0  0  0
    4.0728   -5.9558   26.6364 H   0  0  0  0  0  0  0  0  0  0  0  0
    3.4559   -6.5061   28.9254 H   0  0  0  0  0  0  0  0  0  0  0  0
    3.5247   -4.8092   29.4105 H   0  0  0  0  0  0  0  0  0  0  0  0
    1.2246   -3.3174   29.7700 H   0  0  0  0  0  0  0  0  0  0  0  0
    0.0593   -3.5858   31.9376 H   0  0  0  0  0  0  0  0  0  0  0  0
   -0.3350   -7.8166   31.2100 H   0  0  0  0  0  0  0  0  0  0  0  0
    0.1957   -8.5178   28.9711 H   0  0  0  0  0  0  0  0  0  0  0  0
    1.1586   -7.5150   27.9497 H   0  0  0  0  0  0  0  0  0  0  0  0
    6.3582   -3.1781   26.9347 H   0  0  0  0  0  0  0  0  0  0  0  0
    6.1117   -7.8240   29.6195 H   0  0  0  0  0  0  0  0  0  0  0  0
    5.0937   -7.8006   28.1631 H   0  0  0  0  0  0  0  0  0  0  0  0
    6.7613   -8.3578   28.0583 H   0  0  0  0  0  0  0  0  0  0  0  0
  1  2  1  0
  2  3  1  0
  3  4  1  0
  4  5  1  0
  5  6  1  0
  6  7  2  0
  7  8  1  0
  8  9  2  0
  9 10  1  0
 10 11  3  0
  9 12  1  0
 12 13  2  0
 13 14  1  0
  3 15  1  0
 15 16  2  0
 16 17  1  0
 17 18  1  0
 18 19  2  0
 19 20  1  0
 13  6  1  0
 19 15  1  0
  1 21  1  0
  1 22  1  0
  1 23  1  0
  3 24  1  0
  4 25  1  0
  4 26  1  0
  7 27  1  0
  8 28  1  0
 12 29  1  0
 14 30  1  0
 14 31  1  0
 16 32  1  0
 20 33  1  0
 20 34  1  0
 20 35  1  0
M  END
>  <Energy>  (891) 
75.842799973152282

>  <compound_id>  (891) 
2186

>  <target_id>  (891) 
1

>  <reference_id>  (891) 
40

>  <inspiration_ids>  (891) 
[40, 200]

>  <energy_score>  (891) 
-43.91091008631966

>  <distance_score>  (891) 
1.505967488214812

>  <path>  (891) 
/opt/xchem-fragalysis-2/maxwin/BulkDock/SCRATCH/505732/C2186-P40/C2186-P40.minimised.mol

>  <scratch_subdir>  (891) 
/opt/xchem-fragalysis-2/maxwin/BulkDock/SCRATCH/505732/C2186-P40

>  <fragmenstein_runtime>  (891) 
2.007448196411133

>  <fragmenstein_outcome>  (891) 
too moved

>  <fragmenstein_mode>  (891) 
expansion

>  <fragmenstein_error>  (891) 


$$$$
C2186-P200
     RDKit          3D

 35 36  0  0  0  0  0  0  0  0999 V2000
    4.8329   -2.8397   27.1150 C   0  0  0  0  0  0  0  0  0  0  0  0
    4.4307   -4.0212   26.4464 O   0  0  0  0  0  0  0  0  0  0  0  0
    3.9065   -5.0695   27.2598 C   0  0  0  0  0  0  0  0  0  0  0  0
    2.6662   -4.6321   28.0364 C   0  0  0  0  0  0  0  0  0  0  0  0
    2.0151   -5.7945   28.5042 O   0  0  0  0  0  0  0  0  0  0  0  0
    1.1920   -5.6914   29.5897 C   0  0  0  0  0  0  0  0  0  0  0  0
    0.9132   -4.5330   30.3102 C   0  0  0  0  0  0  0  0  0  0  0  0
    0.1977   -4.6337   31.5012 C   0  0  0  0  0  0  0  0  0  0  0  0
   -0.2772   -5.8783   31.9239 C   0  0  0  0  0  0  0  0  0  0  0  0
   -0.8171   -6.0452   33.2285 C   0  0  0  0  0  0  0  0  0  0  0  0
   -1.1612   -6.2472   34.3138 N   0  0  0  0  0  0  0  0  0  0  0  0
   -0.1273   -7.0106   31.1300 C   0  0  0  0  0  0  0  0  0  0  0  0
    0.6584   -6.9344   29.9957 C   0  0  0  0  0  0  0  0  0  0  0  0
    0.7968   -8.0753   29.1648 N   0  0  0  0  0  0  0  0  0  0  0  0
    5.0094   -5.7642   28.0305 C   0  0  0  0  0  0  0  0  0  0  0  0
    5.7571   -6.7897   27.4627 C   0  0  0  0  0  0  0  0  0  0  0  0
    6.9774   -7.2847   28.5396 S   0  0  0  0  0  0  0  0  0  0  0  0
    6.5859   -6.2112   29.7264 N   0  0  0  0  0  0  0  0  0  0  0  0
    5.5552   -5.4578   29.3377 C   0  0  0  0  0  0  0  0  0  0  0  0
    5.1116   -4.4079   30.3027 C   0  0  0  0  0  0  0  0  0  0  0  0
    5.7226   -3.0188   27.7219 H   0  0  0  0  0  0  0  0  0  0  0  0
    5.1077   -2.1058   26.3508 H   0  0  0  0  0  0  0  0  0  0  0  0
    4.0279   -2.4040   27.7108 H   0  0  0  0  0  0  0  0  0  0  0  0
    3.5458   -5.8164   26.5368 H   0  0  0  0  0  0  0  0  0  0  0  0
    2.9583   -3.9615   28.8455 H   0  0  0  0  0  0  0  0  0  0  0  0
    1.9860   -4.0770   27.3801 H   0  0  0  0  0  0  0  0  0  0  0  0
    1.2634   -3.5539   30.0032 H   0  0  0  0  0  0  0  0  0  0  0  0
    0.0448   -3.7476   32.1160 H   0  0  0  0  0  0  0  0  0  0  0  0
   -0.5492   -7.9622   31.4461 H   0  0  0  0  0  0  0  0  0  0  0  0
    1.6255   -7.9774   28.5877 H   0  0  0  0  0  0  0  0  0  0  0  0
    0.7585   -8.9565   29.6896 H   0  0  0  0  0  0  0  0  0  0  0  0
    5.6628   -7.2290   26.4788 H   0  0  0  0  0  0  0  0  0  0  0  0
    5.0843   -3.4202   29.8395 H   0  0  0  0  0  0  0  0  0  0  0  0
    4.1168   -4.6402   30.6924 H   0  0  0  0  0  0  0  0  0  0  0  0
    5.7898   -4.3413   31.1611 H   0  0  0  0  0  0  0  0  0  0  0  0
  1  2  1  0
  2  3  1  0
  3  4  1  0
  4  5  1  0
  5  6  1  0
  6  7  2  0
  7  8  1  0
  8  9  2  0
  9 10  1  0
 10 11  3  0
  9 12  1  0
 12 13  2  0
 13 14  1  0
  3 15  1  0
 15 16  2  0
 16 17  1  0
 17 18  1  0
 18 19  2  0
 19 20  1  0
 13  6  1  0
 19 15  1  0
  1 21  1  0
  1 22  1  0
  1 23  1  0
  3 24  1  0
  4 25  1  0
  4 26  1  0
  7 27  1  0
  8 28  1  0
 12 29  1  0
 14 30  1  0
 14 31  1  0
 16 32  1  0
 20 33  1  0
 20 34  1  0
 20 35  1  0
M  END
>  <Energy>  (892) 
75.466447005906161

>  <compound_id>  (892) 
2186

>  <target_id>  (892) 
1

>  <reference_id>  (892) 
200

>  <inspiration_ids>  (892) 
[40, 200]

>  <energy_score>  (892) 
-44.28726305356673

>  <distance_score>  (892) 
1.56103369024551

>  <path>  (892) 
/opt/xchem-fragalysis-2/maxwin/BulkDock/SCRATCH/505732/C2186-P200/C2186-P200.minimised.mol

>  <scratch_subdir>  (892) 
/opt/xchem-fragalysis-2/maxwin/BulkDock/SCRATCH/505732/C2186-P200

>  <fragmenstein_runtime>  (892) 
1.4425537586212158

>  <fragmenstein_outcome>  (892) 
too moved

>  <fragmenstein_mode>  (892) 
expansion

>  <fragmenstein_error>  (892) 


$$$$
C2188-P41
     RDKit          3D

 37 39  0  0  0  0  0  0  0  0999 V2000
   -1.0723   -8.0635   31.7822 C   0  0  0  0  0  0  0  0  0  0  0  0
    0.1417   -7.3869   32.1022 O   0  0  0  0  0  0  0  0  0  0  0  0
   -0.0866   -6.4864   33.1010 C   0  0  0  0  0  0  0  0  0  0  0  0
    0.2496   -5.1697   32.8386 C   0  0  0  0  0  0  0  0  0  0  0  0
    0.1374   -4.2636   33.8793 C   0  0  0  0  0  0  0  0  0  0  0  0
    0.8766   -3.1090   33.8409 O   0  0  0  0  0  0  0  0  0  0  0  0
    1.9792   -3.1783   34.6727 C   0  0  0  0  0  0  0  0  0  0  0  0
    3.0083   -4.1026   34.4635 C   0  0  0  0  0  0  0  0  0  0  0  0
    4.0244   -4.2175   35.4096 C   0  0  0  0  0  0  0  0  0  0  0  0
    4.0122   -3.4025   36.5482 C   0  0  0  0  0  0  0  0  0  0  0  0
    5.0524   -3.5347   37.5274 C   0  0  0  0  0  0  0  0  0  0  0  0
    5.9007   -3.6430   38.3118 N   0  0  0  0  0  0  0  0  0  0  0  0
    3.0120   -2.4439   36.7205 C   0  0  0  0  0  0  0  0  0  0  0  0
    2.0032   -2.3221   35.7708 C   0  0  0  0  0  0  0  0  0  0  0  0
   -0.5896   -4.6226   35.0030 C   0  0  0  0  0  0  0  0  0  0  0  0
   -0.9553   -5.8955   35.2460 N   0  0  0  0  0  0  0  0  0  0  0  0
   -0.4235   -6.8197   34.4194 C   0  0  0  0  0  0  0  0  0  0  0  0
    0.4070   -7.7520   35.2195 C   0  0  0  0  0  0  0  0  0  0  0  0
    1.8162   -7.6813   35.1800 C   0  0  0  0  0  0  0  0  0  0  0  0
    2.6180   -8.4454   36.0343 C   0  0  0  0  0  0  0  0  0  0  0  0
    2.0239   -9.2849   36.9692 C   0  0  0  0  0  0  0  0  0  0  0  0
    0.6369   -9.3466   37.0553 C   0  0  0  0  0  0  0  0  0  0  0  0
   -0.1541   -8.5702   36.2019 C   0  0  0  0  0  0  0  0  0  0  0  0
   -1.8046   -7.3562   31.3859 H   0  0  0  0  0  0  0  0  0  0  0  0
   -1.4882   -8.5984   32.6393 H   0  0  0  0  0  0  0  0  0  0  0  0
   -0.8557   -8.7868   30.9944 H   0  0  0  0  0  0  0  0  0  0  0  0
    0.7142   -4.8899   31.8997 H   0  0  0  0  0  0  0  0  0  0  0  0
    3.0138   -4.7379   33.5840 H   0  0  0  0  0  0  0  0  0  0  0  0
    4.8175   -4.9479   35.2627 H   0  0  0  0  0  0  0  0  0  0  0  0
    3.0088   -1.7954   37.5946 H   0  0  0  0  0  0  0  0  0  0  0  0
    1.2088   -1.5934   35.9124 H   0  0  0  0  0  0  0  0  0  0  0  0
   -0.8178   -3.9118   35.7899 H   0  0  0  0  0  0  0  0  0  0  0  0
    2.3045   -6.9915   34.4978 H   0  0  0  0  0  0  0  0  0  0  0  0
    3.7011   -8.3703   35.9864 H   0  0  0  0  0  0  0  0  0  0  0  0
    2.6358   -9.8841   37.6387 H   0  0  0  0  0  0  0  0  0  0  0  0
    0.1620   -9.9993   37.7843 H   0  0  0  0  0  0  0  0  0  0  0  0
   -1.2341   -8.6194   36.2858 H   0  0  0  0  0  0  0  0  0  0  0  0
  1  2  1  0
  2  3  1  0
  3  4  2  0
  4  5  1  0
  5  6  1  0
  6  7  1  0
  7  8  2  0
  8  9  1  0
  9 10  2  0
 10 11  1  0
 11 12  3  0
 10 13  1  0
 13 14  2  0
  5 15  2  0
 15 16  1  0
 16 17  2  0
 17 18  1  0
 18 19  2  0
 19 20  1  0
 20 21  2  0
 21 22  1  0
 22 23  2  0
 17  3  1  0
 23 18  1  0
 14  7  1  0
  1 24  1  0
  1 25  1  0
  1 26  1  0
  4 27  1  0
  8 28  1  0
  9 29  1  0
 13 30  1  0
 14 31  1  0
 15 32  1  0
 19 33  1  0
 20 34  1  0
 21 35  1  0
 22 36  1  0
 23 37  1  0
M  END
>  <Energy>  (893) 
149.63360202646405

>  <compound_id>  (893) 
2188

>  <target_id>  (893) 
1

>  <reference_id>  (893) 
41

>  <inspiration_ids>  (893) 
[41, 25]

>  <energy_score>  (893) 
10.357200583182646

>  <distance_score>  (893) 
1.5852631021946255

>  <path>  (893) 
/opt/xchem-fragalysis-2/maxwin/BulkDock/SCRATCH/505732/C2188-P41/C2188-P41.minimised.mol

>  <scratch_subdir>  (893) 
/opt/xchem-fragalysis-2/maxwin/BulkDock/SCRATCH/505732/C2188-P41

>  <fragmenstein_runtime>  (893) 
1.5406172275543213

>  <fragmenstein_outcome>  (893) 
too moved

>  <fragmenstein_mode>  (893) 
expansion

>  <fragmenstein_error>  (893) 


$$$$
C2188-P25
     RDKit          3D

 37 39  0  0  0  0  0  0  0  0999 V2000
   -1.4564   -8.1449   32.2423 C   0  0  0  0  0  0  0  0  0  0  0  0
   -0.2318   -7.4218   32.3240 O   0  0  0  0  0  0  0  0  0  0  0  0
   -0.2706   -6.4902   33.3157 C   0  0  0  0  0  0  0  0  0  0  0  0
    0.1214   -5.2066   32.9707 C   0  0  0  0  0  0  0  0  0  0  0  0
    0.1832   -4.2604   33.9805 C   0  0  0  0  0  0  0  0  0  0  0  0
    0.9689   -3.1479   33.8079 O   0  0  0  0  0  0  0  0  0  0  0  0
    2.0979   -3.1944   34.6053 C   0  0  0  0  0  0  0  0  0  0  0  0
    3.0697   -4.1876   34.4423 C   0  0  0  0  0  0  0  0  0  0  0  0
    4.0985   -4.2909   35.3751 C   0  0  0  0  0  0  0  0  0  0  0  0
    4.1532   -3.3991   36.4539 C   0  0  0  0  0  0  0  0  0  0  0  0
    5.2038   -3.5232   37.4231 C   0  0  0  0  0  0  0  0  0  0  0  0
    6.0600   -3.6300   38.1991 N   0  0  0  0  0  0  0  0  0  0  0  0
    3.2116   -2.3750   36.5749 C   0  0  0  0  0  0  0  0  0  0  0  0
    2.1921   -2.2623   35.6360 C   0  0  0  0  0  0  0  0  0  0  0  0
   -0.4067   -4.5419   35.2021 C   0  0  0  0  0  0  0  0  0  0  0  0
   -0.7888   -5.7828   35.5462 N   0  0  0  0  0  0  0  0  0  0  0  0
   -0.4815   -6.7623   34.6734 C   0  0  0  0  0  0  0  0  0  0  0  0
    0.2568   -7.8109   35.4008 C   0  0  0  0  0  0  0  0  0  0  0  0
    1.6692   -7.7813   35.4281 C   0  0  0  0  0  0  0  0  0  0  0  0
    2.4022   -8.6041   36.2877 C   0  0  0  0  0  0  0  0  0  0  0  0
    1.7364   -9.4883   37.1292 C   0  0  0  0  0  0  0  0  0  0  0  0
    0.3460   -9.5399   37.1139 C   0  0  0  0  0  0  0  0  0  0  0  0
   -0.3820   -8.6904   36.2734 C   0  0  0  0  0  0  0  0  0  0  0  0
   -2.1656   -7.5647   31.6631 H   0  0  0  0  0  0  0  0  0  0  0  0
   -1.2907   -9.0659   31.6877 H   0  0  0  0  0  0  0  0  0  0  0  0
   -1.8767   -8.4107   33.2159 H   0  0  0  0  0  0  0  0  0  0  0  0
    0.4838   -4.9836   31.9731 H   0  0  0  0  0  0  0  0  0  0  0  0
    3.0128   -4.8868   33.6145 H   0  0  0  0  0  0  0  0  0  0  0  0
    4.8472   -5.0729   35.2676 H   0  0  0  0  0  0  0  0  0  0  0  0
    3.2625   -1.6681   37.4009 H   0  0  0  0  0  0  0  0  0  0  0  0
    1.4395   -1.4846   35.7399 H   0  0  0  0  0  0  0  0  0  0  0  0
   -0.4929   -3.7958   35.9845 H   0  0  0  0  0  0  0  0  0  0  0  0
    2.2054   -7.0572   34.8214 H   0  0  0  0  0  0  0  0  0  0  0  0
    3.4864   -8.5423   36.3157 H   0  0  0  0  0  0  0  0  0  0  0  0
    2.2942  -10.1359   37.8006 H   0  0  0  0  0  0  0  0  0  0  0  0
   -0.1833  -10.2365   37.7610 H   0  0  0  0  0  0  0  0  0  0  0  0
   -1.4662   -8.7271   36.2937 H   0  0  0  0  0  0  0  0  0  0  0  0
  1  2  1  0
  2  3  1  0
  3  4  2  0
  4  5  1  0
  5  6  1  0
  6  7  1  0
  7  8  2  0
  8  9  1  0
  9 10  2  0
 10 11  1  0
 11 12  3  0
 10 13  1  0
 13 14  2  0
  5 15  2  0
 15 16  1  0
 16 17  2  0
 17 18  1  0
 18 19  2  0
 19 20  1  0
 20 21  2  0
 21 22  1  0
 22 23  2  0
 17  3  1  0
 23 18  1  0
 14  7  1  0
  1 24  1  0
  1 25  1  0
  1 26  1  0
  4 27  1  0
  8 28  1  0
  9 29  1  0
 13 30  1  0
 14 31  1  0
 15 32  1  0
 19 33  1  0
 20 34  1  0
 21 35  1  0
 22 36  1  0
 23 37  1  0
M  END
>  <Energy>  (894) 
146.98424968789274

>  <compound_id>  (894) 
2188

>  <target_id>  (894) 
1

>  <reference_id>  (894) 
25

>  <inspiration_ids>  (894) 
[41, 25]

>  <energy_score>  (894) 
7.707848244608783

>  <distance_score>  (894) 
1.6551268058071416

>  <path>  (894) 
/opt/xchem-fragalysis-2/maxwin/BulkDock/SCRATCH/505732/C2188-P25/C2188-P25.minimised.mol

>  <scratch_subdir>  (894) 
/opt/xchem-fragalysis-2/maxwin/BulkDock/SCRATCH/505732/C2188-P25

>  <fragmenstein_runtime>  (894) 
1.4698727130889893

>  <fragmenstein_outcome>  (894) 
too moved

>  <fragmenstein_mode>  (894) 
expansion

>  <fragmenstein_error>  (894) 


$$$$
C1286-P41
     RDKit          3D

 39 41  0  0  0  0  0  0  0  0999 V2000
   -0.5152   -7.6200   30.7178 C   0  0  0  0  0  0  0  0  0  0  0  0
   -1.3658   -8.0869   31.8810 C   0  0  0  0  0  0  0  0  0  0  0  0
   -1.2070   -7.4373   33.1592 N   0  0  0  0  0  0  0  0  0  0  0  0
   -1.9115   -7.8176   34.2670 C   0  0  0  0  0  0  0  0  0  0  0  0
   -1.6986   -7.0511   35.3002 N   0  0  0  0  0  0  0  0  0  0  0  0
   -0.8670   -6.0751   34.8299 C   0  0  0  0  0  0  0  0  0  0  0  0
   -0.4083   -4.9358   35.5161 C   0  0  0  0  0  0  0  0  0  0  0  0
   -0.7743   -4.6869   36.9524 C   0  0  0  0  0  0  0  0  0  0  0  0
    0.3579   -4.0089   34.7738 C   0  0  0  0  0  0  0  0  0  0  0  0
    0.8650   -2.7301   35.4046 C   0  0  0  0  0  0  0  0  0  0  0  0
    1.8320   -2.9484   36.4417 O   0  0  0  0  0  0  0  0  0  0  0  0
    2.9228   -3.6516   36.0138 C   0  0  0  0  0  0  0  0  0  0  0  0
    3.6769   -3.2603   34.9098 C   0  0  0  0  0  0  0  0  0  0  0  0
    4.6873   -4.0949   34.4427 C   0  0  0  0  0  0  0  0  0  0  0  0
    4.9777   -5.2904   35.1113 C   0  0  0  0  0  0  0  0  0  0  0  0
    6.0438   -6.1255   34.6423 C   0  0  0  0  0  0  0  0  0  0  0  0
    6.8995   -6.7983   34.2401 N   0  0  0  0  0  0  0  0  0  0  0  0
    4.2595   -5.6459   36.2560 C   0  0  0  0  0  0  0  0  0  0  0  0
    3.2332   -4.8197   36.7101 C   0  0  0  0  0  0  0  0  0  0  0  0
    0.6869   -4.2596   33.4333 C   0  0  0  0  0  0  0  0  0  0  0  0
    0.2594   -5.4033   32.7720 C   0  0  0  0  0  0  0  0  0  0  0  0
   -0.5403   -6.2893   33.4875 C   0  0  0  0  0  0  0  0  0  0  0  0
    0.5476   -7.6054   30.9644 H   0  0  0  0  0  0  0  0  0  0  0  0
   -0.6374   -8.3010   29.8708 H   0  0  0  0  0  0  0  0  0  0  0  0
   -0.8153   -6.6252   30.3816 H   0  0  0  0  0  0  0  0  0  0  0  0
   -1.1822   -9.1468   32.0395 H   0  0  0  0  0  0  0  0  0  0  0  0
   -2.4218   -7.9840   31.6245 H   0  0  0  0  0  0  0  0  0  0  0  0
   -2.6179   -8.6315   34.2522 H   0  0  0  0  0  0  0  0  0  0  0  0
    0.1169   -4.5220   37.5631 H   0  0  0  0  0  0  0  0  0  0  0  0
   -1.2961   -5.5443   37.3856 H   0  0  0  0  0  0  0  0  0  0  0  0
   -1.4339   -3.8173   37.0303 H   0  0  0  0  0  0  0  0  0  0  0  0
    0.0164   -2.2069   35.8619 H   0  0  0  0  0  0  0  0  0  0  0  0
    1.2549   -2.0257   34.6590 H   0  0  0  0  0  0  0  0  0  0  0  0
    3.4755   -2.3255   34.3966 H   0  0  0  0  0  0  0  0  0  0  0  0
    5.2643   -3.7980   33.5689 H   0  0  0  0  0  0  0  0  0  0  0  0
    4.4856   -6.5633   36.7955 H   0  0  0  0  0  0  0  0  0  0  0  0
    2.6486   -5.1040   37.5815 H   0  0  0  0  0  0  0  0  0  0  0  0
    1.2889   -3.5402   32.8799 H   0  0  0  0  0  0  0  0  0  0  0  0
    0.5319   -5.5351   31.7348 H   0  0  0  0  0  0  0  0  0  0  0  0
  1  2  1  0
  2  3  1  0
  3  4  1  0
  4  5  2  0
  5  6  1  0
  6  7  2  0
  7  8  1  0
  7  9  1  0
  9 10  1  0
 10 11  1  0
 11 12  1  0
 12 13  2  0
 13 14  1  0
 14 15  2  0
 15 16  1  0
 16 17  3  0
 15 18  1  0
 18 19  2  0
  9 20  2  0
 20 21  1  0
 21 22  2  0
 22  3  1  0
 22  6  1  0
 19 12  1  0
  1 23  1  0
  1 24  1  0
  1 25  1  0
  2 26  1  0
  2 27  1  0
  4 28  1  0
  8 29  1  0
  8 30  1  0
  8 31  1  0
 10 32  1  0
 10 33  1  0
 13 34  1  0
 14 35  1  0
 18 36  1  0
 19 37  1  0
 20 38  1  0
 21 39  1  0
M  END
>  <Energy>  (895) 
66.323677109689356

>  <compound_id>  (895) 
1286

>  <target_id>  (895) 
1

>  <reference_id>  (895) 
41

>  <inspiration_ids>  (895) 
[41, 72]

>  <energy_score>  (895) 
-11.223452156694663

>  <distance_score>  (895) 
1.2970219592425598

>  <path>  (895) 
/opt/xchem-fragalysis-2/maxwin/BulkDock/SCRATCH/505732/C1286-P41/C1286-P41.minimised.mol

>  <scratch_subdir>  (895) 
/opt/xchem-fragalysis-2/maxwin/BulkDock/SCRATCH/505732/C1286-P41

>  <fragmenstein_runtime>  (895) 
2.115093231201172

>  <fragmenstein_outcome>  (895) 
too moved

>  <fragmenstein_mode>  (895) 
expansion

>  <fragmenstein_error>  (895) 


$$$$
C1286-P72
     RDKit          3D

 39 41  0  0  0  0  0  0  0  0999 V2000
   -0.4684   -7.6080   30.7063 C   0  0  0  0  0  0  0  0  0  0  0  0
   -1.3156   -8.0865   31.8693 C   0  0  0  0  0  0  0  0  0  0  0  0
   -1.1431   -7.4622   33.1589 N   0  0  0  0  0  0  0  0  0  0  0  0
   -1.8128   -7.8811   34.2747 C   0  0  0  0  0  0  0  0  0  0  0  0
   -1.6202   -7.1126   35.3110 N   0  0  0  0  0  0  0  0  0  0  0  0
   -0.8231   -6.1079   34.8405 C   0  0  0  0  0  0  0  0  0  0  0  0
   -0.3894   -4.9621   35.5322 C   0  0  0  0  0  0  0  0  0  0  0  0
   -0.7556   -4.7324   36.9716 C   0  0  0  0  0  0  0  0  0  0  0  0
    0.3515   -4.0120   34.7929 C   0  0  0  0  0  0  0  0  0  0  0  0
    0.8464   -2.7339   35.4343 C   0  0  0  0  0  0  0  0  0  0  0  0
    1.8272   -2.9499   36.4595 O   0  0  0  0  0  0  0  0  0  0  0  0
    2.9179   -3.6441   36.0166 C   0  0  0  0  0  0  0  0  0  0  0  0
    3.6580   -3.2422   34.9070 C   0  0  0  0  0  0  0  0  0  0  0  0
    4.6660   -4.0698   34.4225 C   0  0  0  0  0  0  0  0  0  0  0  0
    4.9683   -5.2691   35.0790 C   0  0  0  0  0  0  0  0  0  0  0  0
    6.0292   -6.0988   34.5893 C   0  0  0  0  0  0  0  0  0  0  0  0
    6.8793   -6.7674   34.1684 N   0  0  0  0  0  0  0  0  0  0  0  0
    4.2653   -5.6347   36.2300 C   0  0  0  0  0  0  0  0  0  0  0  0
    3.2414   -4.8152   36.7018 C   0  0  0  0  0  0  0  0  0  0  0  0
    0.6705   -4.2402   33.4459 C   0  0  0  0  0  0  0  0  0  0  0  0
    0.2613   -5.3855   32.7765 C   0  0  0  0  0  0  0  0  0  0  0  0
   -0.5050   -6.2998   33.4925 C   0  0  0  0  0  0  0  0  0  0  0  0
   -0.5843   -8.2831   29.8533 H   0  0  0  0  0  0  0  0  0  0  0  0
   -0.7758   -6.6141   30.3729 H   0  0  0  0  0  0  0  0  0  0  0  0
    0.5934   -7.5848   30.9552 H   0  0  0  0  0  0  0  0  0  0  0  0
   -1.1436   -9.1517   32.0066 H   0  0  0  0  0  0  0  0  0  0  0  0
   -2.3718   -7.9657   31.6232 H   0  0  0  0  0  0  0  0  0  0  0  0
   -2.4893   -8.7185   34.2623 H   0  0  0  0  0  0  0  0  0  0  0  0
    0.1339   -4.5544   37.5811 H   0  0  0  0  0  0  0  0  0  0  0  0
   -1.2602   -5.6029   37.3993 H   0  0  0  0  0  0  0  0  0  0  0  0
   -1.4325   -3.8769   37.0581 H   0  0  0  0  0  0  0  0  0  0  0  0
   -0.0050   -2.2281   35.9059 H   0  0  0  0  0  0  0  0  0  0  0  0
    1.2203   -2.0155   34.6939 H   0  0  0  0  0  0  0  0  0  0  0  0
    3.4459   -2.3053   34.4019 H   0  0  0  0  0  0  0  0  0  0  0  0
    5.2308   -3.7653   33.5434 H   0  0  0  0  0  0  0  0  0  0  0  0
    4.5003   -6.5553   36.7601 H   0  0  0  0  0  0  0  0  0  0  0  0
    2.6677   -5.1082   37.5775 H   0  0  0  0  0  0  0  0  0  0  0  0
    1.2509   -3.5019   32.8942 H   0  0  0  0  0  0  0  0  0  0  0  0
    0.5257   -5.5006   31.7352 H   0  0  0  0  0  0  0  0  0  0  0  0
  1  2  1  0
  2  3  1  0
  3  4  1  0
  4  5  2  0
  5  6  1  0
  6  7  2  0
  7  8  1  0
  7  9  1  0
  9 10  1  0
 10 11  1  0
 11 12  1  0
 12 13  2  0
 13 14  1  0
 14 15  2  0
 15 16  1  0
 16 17  3  0
 15 18  1  0
 18 19  2  0
  9 20  2  0
 20 21  1  0
 21 22  2  0
 22  3  1  0
 22  6  1  0
 19 12  1  0
  1 23  1  0
  1 24  1  0
  1 25  1  0
  2 26  1  0
  2 27  1  0
  4 28  1  0
  8 29  1  0
  8 30  1  0
  8 31  1  0
 10 32  1  0
 10 33  1  0
 13 34  1  0
 14 35  1  0
 18 36  1  0
 19 37  1  0
 20 38  1  0
 21 39  1  0
M  END
>  <Energy>  (896) 
66.364949100103445

>  <compound_id>  (896) 
1286

>  <target_id>  (896) 
1

>  <reference_id>  (896) 
72

>  <inspiration_ids>  (896) 
[41, 72]

>  <energy_score>  (896) 
-11.182180166279693

>  <distance_score>  (896) 
1.241027208901481

>  <path>  (896) 
/opt/xchem-fragalysis-2/maxwin/BulkDock/SCRATCH/505732/C1286-P72/C1286-P72.minimised.mol

>  <scratch_subdir>  (896) 
/opt/xchem-fragalysis-2/maxwin/BulkDock/SCRATCH/505732/C1286-P72

>  <fragmenstein_runtime>  (896) 
2.975294828414917

>  <fragmenstein_outcome>  (896) 
too moved

>  <fragmenstein_mode>  (896) 
expansion

>  <fragmenstein_error>  (896) 


$$$$
C2192-P41
     RDKit          3D

 43 45  0  0  0  0  0  0  0  0999 V2000
    0.0472   -2.9611   29.1607 C   0  0  0  0  0  0  0  0  0  0  0  0
    0.1619   -4.1945   29.8783 O   0  0  0  0  0  0  0  0  0  0  0  0
    1.4073   -4.4505   30.3640 C   0  0  0  0  0  0  0  0  0  0  0  0
    2.3967   -3.7528   30.1904 O   0  0  0  0  0  0  0  0  0  0  0  0
    1.4315   -5.7784   31.0817 C   0  0  0  0  0  0  0  0  0  0  0  0
    0.6264   -5.8222   32.3903 C   0  0  0  0  0  0  0  0  0  0  0  0
    1.2979   -4.9230   33.4275 C   0  0  0  0  0  0  0  0  0  0  0  0
    2.3086   -5.4046   34.2810 C   0  0  0  0  0  0  0  0  0  0  0  0
    2.8003   -4.6265   35.3237 C   0  0  0  0  0  0  0  0  0  0  0  0
    2.3049   -3.3420   35.5025 C   0  0  0  0  0  0  0  0  0  0  0  0
    2.5957   -2.6259   36.6924 C   0  0  0  0  0  0  0  0  0  0  0  0
    2.7361   -2.0587   37.6906 N   0  0  0  0  0  0  0  0  0  0  0  0
    1.4001   -2.8010   34.5950 C   0  0  0  0  0  0  0  0  0  0  0  0
    0.8976   -3.5862   33.5667 C   0  0  0  0  0  0  0  0  0  0  0  0
    0.4632   -7.2542   32.9021 C   0  0  0  0  0  0  0  0  0  0  0  0
   -0.8067   -7.2955   33.7104 C   0  0  0  0  0  0  0  0  0  0  0  0
   -0.6388   -6.9049   35.1687 C   0  0  0  0  0  0  0  0  0  0  0  0
   -0.0704   -7.8244   36.0683 C   0  0  0  0  0  0  0  0  0  0  0  0
    0.1970   -7.4774   37.3962 C   0  0  0  0  0  0  0  0  0  0  0  0
   -0.1192   -6.2059   37.8614 C   0  0  0  0  0  0  0  0  0  0  0  0
   -0.7037   -5.2865   36.9986 C   0  0  0  0  0  0  0  0  0  0  0  0
   -0.9590   -5.6358   35.6692 C   0  0  0  0  0  0  0  0  0  0  0  0
   -1.6236   -6.4340   32.8809 N   0  0  0  0  0  0  0  0  0  0  0  0
   -0.7921   -5.4892   32.1759 N   0  0  0  0  0  0  0  0  0  0  0  0
    0.7117   -2.9620   28.2921 H   0  0  0  0  0  0  0  0  0  0  0  0
   -0.9846   -2.8648   28.8139 H   0  0  0  0  0  0  0  0  0  0  0  0
    0.2729   -2.1175   29.8203 H   0  0  0  0  0  0  0  0  0  0  0  0
    2.4840   -5.9976   31.2871 H   0  0  0  0  0  0  0  0  0  0  0  0
    1.0847   -6.5354   30.3671 H   0  0  0  0  0  0  0  0  0  0  0  0
    2.7187   -6.4033   34.1862 H   0  0  0  0  0  0  0  0  0  0  0  0
    3.5162   -5.0498   36.0244 H   0  0  0  0  0  0  0  0  0  0  0  0
    1.0116   -1.7931   34.7302 H   0  0  0  0  0  0  0  0  0  0  0  0
    0.1318   -3.1639   32.9179 H   0  0  0  0  0  0  0  0  0  0  0  0
    1.2819   -7.6074   33.5120 H   0  0  0  0  0  0  0  0  0  0  0  0
    0.3241   -7.9184   32.0410 H   0  0  0  0  0  0  0  0  0  0  0  0
   -1.2437   -8.2946   33.6876 H   0  0  0  0  0  0  0  0  0  0  0  0
    0.1699   -8.8331   35.7463 H   0  0  0  0  0  0  0  0  0  0  0  0
    0.6383   -8.2072   38.0704 H   0  0  0  0  0  0  0  0  0  0  0  0
    0.0796   -5.9326   38.8942 H   0  0  0  0  0  0  0  0  0  0  0  0
   -0.9516   -4.2883   37.3507 H   0  0  0  0  0  0  0  0  0  0  0  0
   -1.3732   -4.8766   35.0108 H   0  0  0  0  0  0  0  0  0  0  0  0
   -2.1728   -7.0133   32.2416 H   0  0  0  0  0  0  0  0  0  0  0  0
   -1.0032   -5.3930   31.1792 H   0  0  0  0  0  0  0  0  0  0  0  0
  1  2  1  0
  2  3  1  0
  3  4  2  0
  3  5  1  0
  5  6  1  0
  6  7  1  0
  7  8  2  0
  8  9  1  0
  9 10  2  0
 10 11  1  0
 11 12  3  0
 10 13  1  0
 13 14  2  0
  6 15  1  0
 15 16  1  0
 16 17  1  0
 17 18  2  0
 18 19  1  0
 19 20  2  0
 20 21  1  0
 21 22  2  0
 16 23  1  0
 23 24  1  0
 24  6  1  0
 14  7  1  0
 22 17  1  0
  1 25  1  0
  1 26  1  0
  1 27  1  0
  5 28  1  0
  5 29  1  0
  8 30  1  0
  9 31  1  0
 13 32  1  0
 14 33  1  0
 15 34  1  0
 15 35  1  0
 16 36  1  0
 18 37  1  0
 19 38  1  0
 20 39  1  0
 21 40  1  0
 22 41  1  0
 23 42  1  0
 24 43  1  0
M  END
>  <Energy>  (897) 
103.80663475457803

>  <compound_id>  (897) 
2192

>  <target_id>  (897) 
1

>  <reference_id>  (897) 
41

>  <inspiration_ids>  (897) 
[41, 105]

>  <energy_score>  (897) 
-25.25067992029227

>  <distance_score>  (897) 
2.0873908224102284

>  <path>  (897) 
/opt/xchem-fragalysis-2/maxwin/BulkDock/SCRATCH/505732/C2192-P41/C2192-P41.minimised.mol

>  <scratch_subdir>  (897) 
/opt/xchem-fragalysis-2/maxwin/BulkDock/SCRATCH/505732/C2192-P41

>  <fragmenstein_runtime>  (897) 
2.799433469772339

>  <fragmenstein_outcome>  (897) 
too moved

>  <fragmenstein_mode>  (897) 
expansion

>  <fragmenstein_error>  (897) 


$$$$
C2192-P105
     RDKit          3D

 43 45  0  0  0  0  0  0  0  0999 V2000
   -0.4685   -2.3506   29.2144 C   0  0  0  0  0  0  0  0  0  0  0  0
    0.1018   -3.5990   29.6224 O   0  0  0  0  0  0  0  0  0  0  0  0
   -0.5391   -4.1925   30.6635 C   0  0  0  0  0  0  0  0  0  0  0  0
   -1.4727   -3.7112   31.2915 O   0  0  0  0  0  0  0  0  0  0  0  0
    0.0102   -5.5763   30.8987 C   0  0  0  0  0  0  0  0  0  0  0  0
    0.3220   -5.9366   32.3587 C   0  0  0  0  0  0  0  0  0  0  0  0
    1.6724   -5.3139   32.8696 C   0  0  0  0  0  0  0  0  0  0  0  0
    2.5072   -6.0134   33.7559 C   0  0  0  0  0  0  0  0  0  0  0  0
    3.1546   -5.3360   34.7972 C   0  0  0  0  0  0  0  0  0  0  0  0
    3.0215   -3.9521   34.9062 C   0  0  0  0  0  0  0  0  0  0  0  0
    3.1870   -3.2938   36.1630 C   0  0  0  0  0  0  0  0  0  0  0  0
    3.1604   -2.7487   37.1846 N   0  0  0  0  0  0  0  0  0  0  0  0
    2.4654   -3.2314   33.8588 C   0  0  0  0  0  0  0  0  0  0  0  0
    1.8050   -3.9079   32.8380 C   0  0  0  0  0  0  0  0  0  0  0  0
   -0.6587   -5.4620   33.4496 C   0  0  0  0  0  0  0  0  0  0  0  0
   -0.4757   -6.5394   34.4965 C   0  0  0  0  0  0  0  0  0  0  0  0
   -0.8591   -6.3791   35.9334 C   0  0  0  0  0  0  0  0  0  0  0  0
   -0.3745   -7.3367   36.8474 C   0  0  0  0  0  0  0  0  0  0  0  0
   -0.2209   -7.0277   38.2032 C   0  0  0  0  0  0  0  0  0  0  0  0
   -0.6042   -5.7798   38.6834 C   0  0  0  0  0  0  0  0  0  0  0  0
   -1.1237   -4.8344   37.8058 C   0  0  0  0  0  0  0  0  0  0  0  0
   -1.2383   -5.1273   36.4433 C   0  0  0  0  0  0  0  0  0  0  0  0
   -0.8111   -7.6674   33.6384 N   0  0  0  0  0  0  0  0  0  0  0  0
    0.1832   -7.4489   32.5086 N   0  0  0  0  0  0  0  0  0  0  0  0
   -0.3071   -1.5956   29.9898 H   0  0  0  0  0  0  0  0  0  0  0  0
    0.0401   -2.0283   28.3020 H   0  0  0  0  0  0  0  0  0  0  0  0
   -1.5353   -2.4604   28.9986 H   0  0  0  0  0  0  0  0  0  0  0  0
    0.9109   -5.7240   30.2884 H   0  0  0  0  0  0  0  0  0  0  0  0
   -0.7485   -6.2503   30.4816 H   0  0  0  0  0  0  0  0  0  0  0  0
    2.4769   -7.0972   33.8020 H   0  0  0  0  0  0  0  0  0  0  0  0
    3.6148   -5.9103   35.5996 H   0  0  0  0  0  0  0  0  0  0  0  0
    2.3854   -2.1461   33.9111 H   0  0  0  0  0  0  0  0  0  0  0  0
    1.2275   -3.2902   32.1567 H   0  0  0  0  0  0  0  0  0  0  0  0
   -1.6794   -5.4719   33.0927 H   0  0  0  0  0  0  0  0  0  0  0  0
   -0.4712   -4.4545   33.8321 H   0  0  0  0  0  0  0  0  0  0  0  0
    0.5823   -6.6621   34.7061 H   0  0  0  0  0  0  0  0  0  0  0  0
   -0.0179   -8.3032   36.4931 H   0  0  0  0  0  0  0  0  0  0  0  0
    0.1966   -7.7656   38.8843 H   0  0  0  0  0  0  0  0  0  0  0  0
   -0.4959   -5.5416   39.7384 H   0  0  0  0  0  0  0  0  0  0  0  0
   -1.4044   -3.8512   38.1758 H   0  0  0  0  0  0  0  0  0  0  0  0
   -1.5515   -4.3240   35.7803 H   0  0  0  0  0  0  0  0  0  0  0  0
   -0.6782   -8.5515   34.1416 H   0  0  0  0  0  0  0  0  0  0  0  0
   -0.1922   -7.8666   31.6527 H   0  0  0  0  0  0  0  0  0  0  0  0
  1  2  1  0
  2  3  1  0
  3  4  2  0
  3  5  1  0
  5  6  1  0
  6  7  1  0
  7  8  2  0
  8  9  1  0
  9 10  2  0
 10 11  1  0
 11 12  3  0
 10 13  1  0
 13 14  2  0
  6 15  1  0
 15 16  1  0
 16 17  1  0
 17 18  2  0
 18 19  1  0
 19 20  2  0
 20 21  1  0
 21 22  2  0
 16 23  1  0
 23 24  1  0
 24  6  1  0
 14  7  1  0
 22 17  1  0
  1 25  1  0
  1 26  1  0
  1 27  1  0
  5 28  1  0
  5 29  1  0
  8 30  1  0
  9 31  1  0
 13 32  1  0
 14 33  1  0
 15 34  1  0
 15 35  1  0
 16 36  1  0
 18 37  1  0
 19 38  1  0
 20 39  1  0
 21 40  1  0
 22 41  1  0
 23 42  1  0
 24 43  1  0
M  END
>  <Energy>  (898) 
144.07384779305787

>  <compound_id>  (898) 
2192

>  <target_id>  (898) 
1

>  <reference_id>  (898) 
105

>  <inspiration_ids>  (898) 
[41, 105]

>  <energy_score>  (898) 
15.016533118184896

>  <distance_score>  (898) 
1.9924281576350416

>  <path>  (898) 
/opt/xchem-fragalysis-2/maxwin/BulkDock/SCRATCH/505732/C2192-P105/C2192-P105.minimised.mol

>  <scratch_subdir>  (898) 
/opt/xchem-fragalysis-2/maxwin/BulkDock/SCRATCH/505732/C2192-P105

>  <fragmenstein_runtime>  (898) 
2.719167947769165

>  <fragmenstein_outcome>  (898) 
too moved

>  <fragmenstein_mode>  (898) 
expansion

>  <fragmenstein_error>  (898) 


$$$$
C2189-P41
     RDKit          3D

 37 38  0  0  0  0  0  0  0  0999 V2000
   -1.2523   -7.5297   35.0072 C   0  0  0  0  0  0  0  0  0  0  0  0
   -1.5537   -7.0487   33.6557 N   0  0  0  0  0  0  0  0  0  0  0  0
   -1.4261   -8.1331   32.7027 C   0  0  0  0  0  0  0  0  0  0  0  0
   -1.7051   -7.7354   31.3768 O   0  0  0  0  0  0  0  0  0  0  0  0
   -0.7798   -5.8668   33.3801 C   0  0  0  0  0  0  0  0  0  0  0  0
    0.6812   -5.9890   33.0098 C   0  0  0  0  0  0  0  0  0  0  0  0
    0.9301   -4.6695   32.2589 C   0  0  0  0  0  0  0  0  0  0  0  0
    2.2518   -4.6903   31.5156 C   0  0  0  0  0  0  0  0  0  0  0  0
    3.4091   -4.7702   32.5163 C   0  0  0  0  0  0  0  0  0  0  0  0
    3.2588   -3.9196   33.7884 C   0  0  0  0  0  0  0  0  0  0  0  0
    2.9523   -4.7640   34.9658 C   0  0  0  0  0  0  0  0  0  0  0  0
    2.6630   -5.4986   35.8184 N   0  0  0  0  0  0  0  0  0  0  0  0
    2.2208   -2.8293   33.5907 C   0  0  0  0  0  0  0  0  0  0  0  0
    0.8641   -3.3886   33.1630 C   0  0  0  0  0  0  0  0  0  0  0  0
   -0.2905   -4.7246   31.3508 C   0  0  0  0  0  0  0  0  0  0  0  0
   -1.3766   -5.0917   32.2754 N   0  0  0  0  0  0  0  0  0  0  0  0
   -0.2549   -7.9763   35.0829 H   0  0  0  0  0  0  0  0  0  0  0  0
   -2.0043   -8.2566   35.3198 H   0  0  0  0  0  0  0  0  0  0  0  0
   -1.3158   -6.7202   35.7441 H   0  0  0  0  0  0  0  0  0  0  0  0
   -0.4348   -8.5746   32.7156 H   0  0  0  0  0  0  0  0  0  0  0  0
   -2.1647   -8.8901   32.9353 H   0  0  0  0  0  0  0  0  0  0  0  0
   -1.9386   -6.7938   31.5168 H   0  0  0  0  0  0  0  0  0  0  0  0
   -0.8601   -5.2235   34.2650 H   0  0  0  0  0  0  0  0  0  0  0  0
    0.8674   -6.8275   32.3277 H   0  0  0  0  0  0  0  0  0  0  0  0
    1.2880   -6.1717   33.8864 H   0  0  0  0  0  0  0  0  0  0  0  0
    2.3122   -5.5351   30.8193 H   0  0  0  0  0  0  0  0  0  0  0  0
    2.3531   -3.7837   30.9052 H   0  0  0  0  0  0  0  0  0  0  0  0
    3.5381   -5.8105   32.8195 H   0  0  0  0  0  0  0  0  0  0  0  0
    4.3288   -4.4803   31.9928 H   0  0  0  0  0  0  0  0  0  0  0  0
    4.2264   -3.4411   33.9901 H   0  0  0  0  0  0  0  0  0  0  0  0
    2.5770   -2.1372   32.8160 H   0  0  0  0  0  0  0  0  0  0  0  0
    2.0989   -2.2289   34.5010 H   0  0  0  0  0  0  0  0  0  0  0  0
    0.3380   -2.5834   32.6331 H   0  0  0  0  0  0  0  0  0  0  0  0
    0.2849   -3.5624   34.0744 H   0  0  0  0  0  0  0  0  0  0  0  0
   -0.1882   -5.4918   30.5738 H   0  0  0  0  0  0  0  0  0  0  0  0
   -0.5042   -3.7756   30.8483 H   0  0  0  0  0  0  0  0  0  0  0  0
   -1.6892   -4.2233   32.7321 H   0  0  0  0  0  0  0  0  0  0  0  0
  1  2  1  0
  2  3  1  0
  3  4  1  0
  2  5  1  0
  5  6  1  0
  6  7  1  0
  7  8  1  0
  8  9  1  0
  9 10  1  0
 10 11  1  0
 11 12  3  0
 10 13  1  0
 13 14  1  0
  7 15  1  0
 15 16  1  0
 16  5  1  0
 14  7  1  0
  1 17  1  0
  1 18  1  0
  1 19  1  0
  3 20  1  0
  3 21  1  0
  4 22  1  0
  5 23  1  0
  6 24  1  0
  6 25  1  0
  8 26  1  0
  8 27  1  0
  9 28  1  0
  9 29  1  0
 10 30  1  0
 13 31  1  0
 13 32  1  0
 14 33  1  0
 14 34  1  0
 15 35  1  0
 15 36  1  0
 16 37  1  0
M  END
>  <Energy>  (899) 
-36.755851840468154

>  <compound_id>  (899) 
2189

>  <target_id>  (899) 
1

>  <reference_id>  (899) 
41

>  <inspiration_ids>  (899) 
[41, 128]

>  <energy_score>  (899) 
-30.107481375119903

>  <distance_score>  (899) 
2.540458001121688

>  <path>  (899) 
/opt/xchem-fragalysis-2/maxwin/BulkDock/SCRATCH/505732/C2189-P41/C2189-P41.minimised.mol

>  <scratch_subdir>  (899) 
/opt/xchem-fragalysis-2/maxwin/BulkDock/SCRATCH/505732/C2189-P41

>  <fragmenstein_runtime>  (899) 
5.242723226547241

>  <fragmenstein_outcome>  (899) 
too moved

>  <fragmenstein_mode>  (899) 
expansion

>  <fragmenstein_error>  (899) 


$$$$
C2189-P128
     RDKit          3D

 37 38  0  0  0  0  0  0  0  0999 V2000
   -1.4207   -7.4454   34.9612 C   0  0  0  0  0  0  0  0  0  0  0  0
   -1.6408   -7.0708   33.5599 N   0  0  0  0  0  0  0  0  0  0  0  0
   -1.3346   -8.1928   32.6994 C   0  0  0  0  0  0  0  0  0  0  0  0
   -1.4337   -7.9387   31.3003 O   0  0  0  0  0  0  0  0  0  0  0  0
   -0.9623   -5.8380   33.2610 C   0  0  0  0  0  0  0  0  0  0  0  0
    0.5411   -5.8740   33.1480 C   0  0  0  0  0  0  0  0  0  0  0  0
    0.8326   -4.6726   32.2426 C   0  0  0  0  0  0  0  0  0  0  0  0
    2.1952   -4.7460   31.5591 C   0  0  0  0  0  0  0  0  0  0  0  0
    3.3138   -4.0563   32.3428 C   0  0  0  0  0  0  0  0  0  0  0  0
    3.0833   -3.9458   33.8525 C   0  0  0  0  0  0  0  0  0  0  0  0
    3.2170   -5.2631   34.5140 C   0  0  0  0  0  0  0  0  0  0  0  0
    3.2490   -6.3216   34.9937 N   0  0  0  0  0  0  0  0  0  0  0  0
    1.7463   -3.2547   34.1646 C   0  0  0  0  0  0  0  0  0  0  0  0
    0.7278   -3.3401   33.0183 C   0  0  0  0  0  0  0  0  0  0  0  0
   -0.2840   -4.8435   31.2216 C   0  0  0  0  0  0  0  0  0  0  0  0
   -1.4267   -5.3163   31.9907 N   0  0  0  0  0  0  0  0  0  0  0  0
   -0.3978   -7.7895   35.1512 H   0  0  0  0  0  0  0  0  0  0  0  0
   -2.1214   -8.2316   35.2548 H   0  0  0  0  0  0  0  0  0  0  0  0
   -1.6218   -6.6021   35.6315 H   0  0  0  0  0  0  0  0  0  0  0  0
   -2.0368   -8.9866   32.8991 H   0  0  0  0  0  0  0  0  0  0  0  0
   -0.3230   -8.5240   32.8792 H   0  0  0  0  0  0  0  0  0  0  0  0
   -0.8016   -8.5642   30.8997 H   0  0  0  0  0  0  0  0  0  0  0  0
   -1.2363   -5.0915   34.0151 H   0  0  0  0  0  0  0  0  0  0  0  0
    0.9362   -5.8191   34.1561 H   0  0  0  0  0  0  0  0  0  0  0  0
    0.9177   -6.7910   32.6839 H   0  0  0  0  0  0  0  0  0  0  0  0
    2.4518   -5.7900   31.3759 H   0  0  0  0  0  0  0  0  0  0  0  0
    2.1509   -4.2788   30.5661 H   0  0  0  0  0  0  0  0  0  0  0  0
    4.2697   -4.5504   32.1326 H   0  0  0  0  0  0  0  0  0  0  0  0
    3.4222   -3.0368   31.9464 H   0  0  0  0  0  0  0  0  0  0  0  0
    3.8825   -3.3165   34.2677 H   0  0  0  0  0  0  0  0  0  0  0  0
    1.9304   -2.1905   34.3624 H   0  0  0  0  0  0  0  0  0  0  0  0
    1.3045   -3.6546   35.0860 H   0  0  0  0  0  0  0  0  0  0  0  0
    0.9091   -2.5104   32.3207 H   0  0  0  0  0  0  0  0  0  0  0  0
   -0.2758   -3.1606   33.4199 H   0  0  0  0  0  0  0  0  0  0  0  0
   -0.0175   -5.5914   30.4638 H   0  0  0  0  0  0  0  0  0  0  0  0
   -0.5246   -3.9122   30.6988 H   0  0  0  0  0  0  0  0  0  0  0  0
   -1.8001   -6.1516   31.5293 H   0  0  0  0  0  0  0  0  0  0  0  0
  1  2  1  0
  2  3  1  0
  3  4  1  0
  2  5  1  0
  5  6  1  0
  6  7  1  0
  7  8  1  0
  8  9  1  0
  9 10  1  0
 10 11  1  0
 11 12  3  0
 10 13  1  0
 13 14  1  0
  7 15  1  0
 15 16  1  0
 16  5  1  0
 14  7  1  0
  1 17  1  0
  1 18  1  0
  1 19  1  0
  3 20  1  0
  3 21  1  0
  4 22  1  0
  5 23  1  0
  6 24  1  0
  6 25  1  0
  8 26  1  0
  8 27  1  0
  9 28  1  0
  9 29  1  0
 10 30  1  0
 13 31  1  0
 13 32  1  0
 14 33  1  0
 14 34  1  0
 15 35  1  0
 15 36  1  0
 16 37  1  0
M  END
>  <Energy>  (900) 
-32.668938357885267

>  <compound_id>  (900) 
2189

>  <target_id>  (900) 
1

>  <reference_id>  (900) 
128

>  <inspiration_ids>  (900) 
[41, 128]

>  <energy_score>  (900) 
-26.020567892538317

>  <distance_score>  (900) 
2.297915362315263

>  <path>  (900) 
/opt/xchem-fragalysis-2/maxwin/BulkDock/SCRATCH/505732/C2189-P128/C2189-P128.minimised.mol

>  <scratch_subdir>  (900) 
/opt/xchem-fragalysis-2/maxwin/BulkDock/SCRATCH/505732/C2189-P128

>  <fragmenstein_runtime>  (900) 
5.241101026535034

>  <fragmenstein_outcome>  (900) 
too moved

>  <fragmenstein_mode>  (900) 
expansion

>  <fragmenstein_error>  (900) 


$$$$
C2195-P41
     RDKit          3D

 41 42  0  0  0  0  0  0  0  0999 V2000
    0.0642   -6.0891   31.2424 C   0  0  0  0  0  0  0  0  0  0  0  0
    0.1055   -4.6264   30.9013 N   0  0  0  0  0  0  0  0  0  0  0  0
   -0.0380   -5.1793   29.5961 F   0  0  0  0  0  0  0  0  0  0  0  0
   -0.9016   -3.5307   31.1468 C   0  0  0  0  0  0  0  0  0  0  0  0
   -1.9900   -3.5825   31.5930 O   0  0  0  0  0  0  0  0  0  0  0  0
   -0.2771   -2.2213   30.5796 C   0  0  0  0  0  0  0  0  0  0  0  0
   -1.4392   -1.2673   30.1951 C   0  0  0  0  0  0  0  0  0  0  0  0
   -1.0665    0.1941   30.0147 C   0  0  0  0  0  0  0  0  0  0  0  0
    0.3568    0.3636   29.5656 C   0  0  0  0  0  0  0  0  0  0  0  0
    1.3478   -0.2851   30.5482 C   0  0  0  0  0  0  0  0  0  0  0  0
    2.0188    0.7297   31.3664 N   0  0  0  0  0  0  0  0  0  0  0  0
    0.8188   -1.5032   31.4526 C   0  0  0  0  0  0  0  0  0  0  0  0
    0.2038   -1.0736   32.8313 C   0  0  0  0  0  0  0  0  0  0  0  0
    1.1559   -0.8124   34.0252 C   0  0  0  0  0  0  0  0  0  0  0  0
    2.4374   -1.6356   34.0763 C   0  0  0  0  0  0  0  0  0  0  0  0
    2.3656   -2.8715   33.1982 C   0  0  0  0  0  0  0  0  0  0  0  0
    1.4431   -3.8634   33.7806 C   0  0  0  0  0  0  0  0  0  0  0  0
    0.7496   -4.6583   34.2656 N   0  0  0  0  0  0  0  0  0  0  0  0
    2.0644   -2.4490   31.7395 C   0  0  0  0  0  0  0  0  0  0  0  0
    0.0796   -6.1725   32.3291 H   0  0  0  0  0  0  0  0  0  0  0  0
   -0.8779   -6.5426   30.9122 H   0  0  0  0  0  0  0  0  0  0  0  0
    0.9435   -6.5960   30.8340 H   0  0  0  0  0  0  0  0  0  0  0  0
    0.2049   -2.5083   29.6316 H   0  0  0  0  0  0  0  0  0  0  0  0
   -2.2551   -1.3093   30.9270 H   0  0  0  0  0  0  0  0  0  0  0  0
   -1.8689   -1.6398   29.2556 H   0  0  0  0  0  0  0  0  0  0  0  0
   -1.7503    0.6539   29.2925 H   0  0  0  0  0  0  0  0  0  0  0  0
   -1.2034    0.7148   30.9643 H   0  0  0  0  0  0  0  0  0  0  0  0
    0.4761   -0.1072   28.5802 H   0  0  0  0  0  0  0  0  0  0  0  0
    0.5809    1.4264   29.4117 H   0  0  0  0  0  0  0  0  0  0  0  0
    2.1349   -0.6938   29.8988 H   0  0  0  0  0  0  0  0  0  0  0  0
    2.5075    1.3842   30.7521 H   0  0  0  0  0  0  0  0  0  0  0  0
    1.3186    1.2981   31.8439 H   0  0  0  0  0  0  0  0  0  0  0  0
   -0.4792   -1.8658   33.1637 H   0  0  0  0  0  0  0  0  0  0  0  0
   -0.4362   -0.1934   32.7197 H   0  0  0  0  0  0  0  0  0  0  0  0
    1.4218    0.2512   34.0529 H   0  0  0  0  0  0  0  0  0  0  0  0
    0.5857   -0.9833   34.9481 H   0  0  0  0  0  0  0  0  0  0  0  0
    3.2691   -1.0060   33.7333 H   0  0  0  0  0  0  0  0  0  0  0  0
    2.6681   -1.8961   35.1170 H   0  0  0  0  0  0  0  0  0  0  0  0
    3.3615   -3.3358   33.1969 H   0  0  0  0  0  0  0  0  0  0  0  0
    2.9725   -1.9177   31.4187 H   0  0  0  0  0  0  0  0  0  0  0  0
    2.0559   -3.3252   31.0870 H   0  0  0  0  0  0  0  0  0  0  0  0
  1  2  1  0
  2  3  1  0
  2  4  1  0
  4  5  2  0
  4  6  1  0
  6  7  1  0
  7  8  1  0
  8  9  1  0
  9 10  1  0
 10 11  1  0
 10 12  1  0
 12 13  1  0
 13 14  1  0
 14 15  1  0
 15 16  1  0
 16 17  1  0
 17 18  3  0
 16 19  1  0
 12  6  1  0
 19 12  1  0
  1 20  1  0
  1 21  1  0
  1 22  1  0
  6 23  1  0
  7 24  1  0
  7 25  1  0
  8 26  1  0
  8 27  1  0
  9 28  1  0
  9 29  1  0
 10 30  1  0
 11 31  1  0
 11 32  1  0
 13 33  1  0
 13 34  1  0
 14 35  1  0
 14 36  1  0
 15 37  1  0
 15 38  1  0
 16 39  1  0
 19 40  1  0
 19 41  1  0
M  END
>  <Energy>  (901) 
108.34724148027161

>  <compound_id>  (901) 
2195

>  <target_id>  (901) 
1

>  <reference_id>  (901) 
41

>  <inspiration_ids>  (901) 
[41, 131]

>  <energy_score>  (901) 
22.915336467158284

>  <distance_score>  (901) 
2.8587403191432585

>  <path>  (901) 
/opt/xchem-fragalysis-2/maxwin/BulkDock/SCRATCH/505732/C2195-P41/C2195-P41.minimised.mol

>  <scratch_subdir>  (901) 
/opt/xchem-fragalysis-2/maxwin/BulkDock/SCRATCH/505732/C2195-P41

>  <fragmenstein_runtime>  (901) 
12.991060733795166

>  <fragmenstein_outcome>  (901) 
too moved

>  <fragmenstein_mode>  (901) 
expansion

>  <fragmenstein_error>  (901) 


$$$$
C2195-P131
     RDKit          3D

 41 42  0  0  0  0  0  0  0  0999 V2000
    1.4920    3.3450   34.3512 C   0  0  0  0  0  0  0  0  0  0  0  0
    1.1494    2.3742   33.2608 N   0  0  0  0  0  0  0  0  0  0  0  0
    2.4379    1.8733   33.6426 F   0  0  0  0  0  0  0  0  0  0  0  0
    0.1229    1.2697   33.2142 C   0  0  0  0  0  0  0  0  0  0  0  0
   -0.5957    0.8609   34.0540 O   0  0  0  0  0  0  0  0  0  0  0  0
    0.0484    0.7068   31.7664 C   0  0  0  0  0  0  0  0  0  0  0  0
    0.5862    1.6956   30.6941 C   0  0  0  0  0  0  0  0  0  0  0  0
    0.6475    1.1415   29.2779 C   0  0  0  0  0  0  0  0  0  0  0  0
   -0.3203    0.0022   29.0886 C   0  0  0  0  0  0  0  0  0  0  0  0
   -0.0791   -1.1523   30.0887 C   0  0  0  0  0  0  0  0  0  0  0  0
    0.6121   -2.2765   29.4484 N   0  0  0  0  0  0  0  0  0  0  0  0
    0.5710   -0.7603   31.5040 C   0  0  0  0  0  0  0  0  0  0  0  0
    2.1485   -0.7809   31.5423 C   0  0  0  0  0  0  0  0  0  0  0  0
    2.7268   -1.0757   32.9460 C   0  0  0  0  0  0  0  0  0  0  0  0
    2.4287   -2.4918   33.4015 C   0  0  0  0  0  0  0  0  0  0  0  0
    1.0894   -2.9915   32.8453 C   0  0  0  0  0  0  0  0  0  0  0  0
    0.5503   -4.0103   33.7676 C   0  0  0  0  0  0  0  0  0  0  0  0
    0.1772   -4.8596   34.4652 N   0  0  0  0  0  0  0  0  0  0  0  0
    0.0890   -1.8241   32.5909 C   0  0  0  0  0  0  0  0  0  0  0  0
    0.6363    4.0225   34.4316 H   0  0  0  0  0  0  0  0  0  0  0  0
    1.5870    2.8276   35.3130 H   0  0  0  0  0  0  0  0  0  0  0  0
    2.3792    3.9293   34.0856 H   0  0  0  0  0  0  0  0  0  0  0  0
   -1.0417    0.6670   31.6063 H   0  0  0  0  0  0  0  0  0  0  0  0
    1.5941    2.0518   30.9374 H   0  0  0  0  0  0  0  0  0  0  0  0
   -0.0210    2.6051   30.6993 H   0  0  0  0  0  0  0  0  0  0  0  0
    0.4380    1.9422   28.5591 H   0  0  0  0  0  0  0  0  0  0  0  0
    1.6640    0.7935   29.0576 H   0  0  0  0  0  0  0  0  0  0  0  0
   -1.3443    0.3779   29.2207 H   0  0  0  0  0  0  0  0  0  0  0  0
   -0.2771   -0.3577   28.0529 H   0  0  0  0  0  0  0  0  0  0  0  0
   -1.0866   -1.5346   30.3040 H   0  0  0  0  0  0  0  0  0  0  0  0
    1.4373   -1.9225   28.9607 H   0  0  0  0  0  0  0  0  0  0  0  0
    0.0161   -2.6218   28.6874 H   0  0  0  0  0  0  0  0  0  0  0  0
    2.5769    0.1610   31.1932 H   0  0  0  0  0  0  0  0  0  0  0  0
    2.5460   -1.5438   30.8642 H   0  0  0  0  0  0  0  0  0  0  0  0
    3.8111   -0.9157   32.9389 H   0  0  0  0  0  0  0  0  0  0  0  0
    2.3138   -0.3778   33.6777 H   0  0  0  0  0  0  0  0  0  0  0  0
    2.4553   -2.5200   34.4987 H   0  0  0  0  0  0  0  0  0  0  0  0
    3.2260   -3.1669   33.0639 H   0  0  0  0  0  0  0  0  0  0  0  0
    1.2762   -3.4878   31.8848 H   0  0  0  0  0  0  0  0  0  0  0  0
   -0.8915   -2.2313   32.3138 H   0  0  0  0  0  0  0  0  0  0  0  0
   -0.0729   -1.3392   33.5568 H   0  0  0  0  0  0  0  0  0  0  0  0
  1  2  1  0
  2  3  1  0
  2  4  1  0
  4  5  2  0
  4  6  1  0
  6  7  1  0
  7  8  1  0
  8  9  1  0
  9 10  1  0
 10 11  1  0
 10 12  1  0
 12 13  1  0
 13 14  1  0
 14 15  1  0
 15 16  1  0
 16 17  1  0
 17 18  3  0
 16 19  1  0
 12  6  1  0
 19 12  1  0
  1 20  1  0
  1 21  1  0
  1 22  1  0
  6 23  1  0
  7 24  1  0
  7 25  1  0
  8 26  1  0
  8 27  1  0
  9 28  1  0
  9 29  1  0
 10 30  1  0
 11 31  1  0
 11 32  1  0
 13 33  1  0
 13 34  1  0
 14 35  1  0
 14 36  1  0
 15 37  1  0
 15 38  1  0
 16 39  1  0
 19 40  1  0
 19 41  1  0
M  END
>  <Energy>  (902) 
109.73696895491491

>  <compound_id>  (902) 
2195

>  <target_id>  (902) 
1

>  <reference_id>  (902) 
131

>  <inspiration_ids>  (902) 
[41, 131]

>  <energy_score>  (902) 
24.305063941801166

>  <distance_score>  (902) 
4.9077071474204805

>  <path>  (902) 
/opt/xchem-fragalysis-2/maxwin/BulkDock/SCRATCH/505732/C2195-P131/C2195-P131.minimised.mol

>  <scratch_subdir>  (902) 
/opt/xchem-fragalysis-2/maxwin/BulkDock/SCRATCH/505732/C2195-P131

>  <fragmenstein_runtime>  (902) 
11.544015645980835

>  <fragmenstein_outcome>  (902) 
too moved

>  <fragmenstein_mode>  (902) 
expansion

>  <fragmenstein_error>  (902) 


$$$$
C2196-P41
     RDKit          3D

 26 27  0  0  0  0  0  0  0  0999 V2000
    6.3688   -3.9036   38.3351 N   0  0  0  0  0  0  0  0  0  0  0  0
    5.4200   -3.8822   37.6672 C   0  0  0  0  0  0  0  0  0  0  0  0
    4.2496   -3.8719   36.8376 C   0  0  0  0  0  0  0  0  0  0  0  0
    3.8292   -5.0540   36.2191 C   0  0  0  0  0  0  0  0  0  0  0  0
    2.6868   -5.0555   35.4187 C   0  0  0  0  0  0  0  0  0  0  0  0
    1.9642   -3.8743   35.2497 C   0  0  0  0  0  0  0  0  0  0  0  0
    0.7919   -3.7315   34.5705 O   0  0  0  0  0  0  0  0  0  0  0  0
    0.0961   -4.9057   34.1828 C   0  0  0  0  0  0  0  0  0  0  0  0
    0.5928   -5.4583   32.8528 C   0  0  0  0  0  0  0  0  0  0  0  0
    1.5834   -5.0097   32.2769 O   0  0  0  0  0  0  0  0  0  0  0  0
   -0.1370   -6.5456   32.2636 C   0  0  0  0  0  0  0  0  0  0  0  0
   -1.1065   -7.4115   32.7188 C   0  0  0  0  0  0  0  0  0  0  0  0
   -1.4628   -8.2995   31.7340 N   0  0  0  0  0  0  0  0  0  0  0  0
   -0.6900   -8.0135   30.7134 C   0  0  0  0  0  0  0  0  0  0  0  0
    0.0872   -6.9324   30.9662 N   0  0  0  0  0  0  0  0  0  0  0  0
    2.4194   -2.6884   35.8298 C   0  0  0  0  0  0  0  0  0  0  0  0
    3.5514   -2.6840   36.6344 C   0  0  0  0  0  0  0  0  0  0  0  0
    4.3865   -5.9776   36.3627 H   0  0  0  0  0  0  0  0  0  0  0  0
    2.3871   -5.9879   34.9561 H   0  0  0  0  0  0  0  0  0  0  0  0
    0.1143   -5.6757   34.9626 H   0  0  0  0  0  0  0  0  0  0  0  0
   -0.9483   -4.6097   34.0422 H   0  0  0  0  0  0  0  0  0  0  0  0
   -1.5647   -7.4659   33.6982 H   0  0  0  0  0  0  0  0  0  0  0  0
   -0.6276   -8.5581   29.7803 H   0  0  0  0  0  0  0  0  0  0  0  0
    0.7569   -6.5046   30.3388 H   0  0  0  0  0  0  0  0  0  0  0  0
    1.8619   -1.7660   35.6787 H   0  0  0  0  0  0  0  0  0  0  0  0
    3.8789   -1.7558   37.0977 H   0  0  0  0  0  0  0  0  0  0  0  0
  1  2  3  0
  2  3  1  0
  3  4  2  0
  4  5  1  0
  5  6  2  0
  6  7  1  0
  7  8  1  0
  8  9  1  0
  9 10  2  0
  9 11  1  0
 11 12  2  0
 12 13  1  0
 13 14  2  0
 14 15  1  0
  6 16  1  0
 16 17  2  0
 17  3  1  0
 15 11  1  0
  4 18  1  0
  5 19  1  0
  8 20  1  0
  8 21  1  0
 12 22  1  0
 14 23  1  0
 15 24  1  0
 16 25  1  0
 17 26  1  0
M  END
>  <Energy>  (903) 
55.145365019109576

>  <compound_id>  (903) 
2196

>  <target_id>  (903) 
1

>  <reference_id>  (903) 
41

>  <inspiration_ids>  (903) 
[41, 132]

>  <energy_score>  (903) 
-5.550977711228256

>  <distance_score>  (903) 
1.3426879386516484

>  <path>  (903) 
/opt/xchem-fragalysis-2/maxwin/BulkDock/SCRATCH/505732/C2196-P41/C2196-P41.minimised.mol

>  <scratch_subdir>  (903) 
/opt/xchem-fragalysis-2/maxwin/BulkDock/SCRATCH/505732/C2196-P41

>  <fragmenstein_runtime>  (903) 
2.3312573432922363

>  <fragmenstein_outcome>  (903) 
too moved

>  <fragmenstein_mode>  (903) 
expansion

>  <fragmenstein_error>  (903) 


$$$$
C2196-P132
     RDKit          3D

 26 27  0  0  0  0  0  0  0  0999 V2000
    6.2362   -3.9955   38.4509 N   0  0  0  0  0  0  0  0  0  0  0  0
    5.3122   -3.9597   37.7496 C   0  0  0  0  0  0  0  0  0  0  0  0
    4.1737   -3.9284   36.8774 C   0  0  0  0  0  0  0  0  0  0  0  0
    3.7399   -5.1071   36.2616 C   0  0  0  0  0  0  0  0  0  0  0  0
    2.6289   -5.0868   35.4179 C   0  0  0  0  0  0  0  0  0  0  0  0
    1.9495   -3.8873   35.2044 C   0  0  0  0  0  0  0  0  0  0  0  0
    0.8064   -3.7215   34.4821 O   0  0  0  0  0  0  0  0  0  0  0  0
    0.0874   -4.8812   34.0916 C   0  0  0  0  0  0  0  0  0  0  0  0
    0.6048   -5.4706   32.7845 C   0  0  0  0  0  0  0  0  0  0  0  0
    1.6036   -5.0366   32.2114 O   0  0  0  0  0  0  0  0  0  0  0  0
   -0.1142   -6.5759   32.2142 C   0  0  0  0  0  0  0  0  0  0  0  0
   -1.1008   -7.4176   32.6762 C   0  0  0  0  0  0  0  0  0  0  0  0
   -1.4274   -8.3480   31.7219 N   0  0  0  0  0  0  0  0  0  0  0  0
   -0.6188   -8.1169   30.7158 C   0  0  0  0  0  0  0  0  0  0  0  0
    0.1415   -7.0166   30.9391 N   0  0  0  0  0  0  0  0  0  0  0  0
    2.4199   -2.7062   35.7825 C   0  0  0  0  0  0  0  0  0  0  0  0
    3.5211   -2.7231   36.6290 C   0  0  0  0  0  0  0  0  0  0  0  0
    4.2612   -6.0453   36.4418 H   0  0  0  0  0  0  0  0  0  0  0  0
    2.3171   -6.0176   34.9599 H   0  0  0  0  0  0  0  0  0  0  0  0
    0.0580   -5.6376   34.8843 H   0  0  0  0  0  0  0  0  0  0  0  0
   -0.9424   -4.5558   33.9127 H   0  0  0  0  0  0  0  0  0  0  0  0
   -1.5875   -7.4284   33.6430 H   0  0  0  0  0  0  0  0  0  0  0  0
   -0.5273   -8.7108   29.8151 H   0  0  0  0  0  0  0  0  0  0  0  0
    0.8292   -6.6165   30.3138 H   0  0  0  0  0  0  0  0  0  0  0  0
    1.8972   -1.7698   35.5968 H   0  0  0  0  0  0  0  0  0  0  0  0
    3.8601   -1.7978   37.0898 H   0  0  0  0  0  0  0  0  0  0  0  0
  1  2  3  0
  2  3  1  0
  3  4  2  0
  4  5  1  0
  5  6  2  0
  6  7  1  0
  7  8  1  0
  8  9  1  0
  9 10  2  0
  9 11  1  0
 11 12  2  0
 12 13  1  0
 13 14  2  0
 14 15  1  0
  6 16  1  0
 16 17  2  0
 17  3  1  0
 15 11  1  0
  4 18  1  0
  5 19  1  0
  8 20  1  0
  8 21  1  0
 12 22  1  0
 14 23  1  0
 15 24  1  0
 16 25  1  0
 17 26  1  0
M  END
>  <Energy>  (904) 
55.043207847665556

>  <compound_id>  (904) 
2196

>  <target_id>  (904) 
1

>  <reference_id>  (904) 
132

>  <inspiration_ids>  (904) 
[41, 132]

>  <energy_score>  (904) 
-5.653134882671623

>  <distance_score>  (904) 
1.3455433638394259

>  <path>  (904) 
/opt/xchem-fragalysis-2/maxwin/BulkDock/SCRATCH/505732/C2196-P132/C2196-P132.minimised.mol

>  <scratch_subdir>  (904) 
/opt/xchem-fragalysis-2/maxwin/BulkDock/SCRATCH/505732/C2196-P132

>  <fragmenstein_runtime>  (904) 
3.494903087615967

>  <fragmenstein_outcome>  (904) 
too moved

>  <fragmenstein_mode>  (904) 
expansion

>  <fragmenstein_error>  (904) 


$$$$
C2198-P41
     RDKit          3D

 33 34  0  0  0  0  0  0  0  0999 V2000
    3.9808   -5.0792   34.2513 C   0  0  0  0  0  0  0  0  0  0  0  0
    2.6253   -5.2204   33.7999 O   0  0  0  0  0  0  0  0  0  0  0  0
    1.5749   -4.9438   34.6024 C   0  0  0  0  0  0  0  0  0  0  0  0
    1.8150   -4.5497   36.0599 C   0  0  0  0  0  0  0  0  0  0  0  0
    2.7807   -3.5447   36.3219 O   0  0  0  0  0  0  0  0  0  0  0  0
    2.5371   -2.2763   35.8799 C   0  0  0  0  0  0  0  0  0  0  0  0
    1.3433   -1.8079   35.3303 C   0  0  0  0  0  0  0  0  0  0  0  0
    1.2336   -0.4736   34.9178 C   0  0  0  0  0  0  0  0  0  0  0  0
    2.3127    0.4028   35.0621 C   0  0  0  0  0  0  0  0  0  0  0  0
    2.1973    1.7698   34.6458 C   0  0  0  0  0  0  0  0  0  0  0  0
    2.1132    2.8796   34.3168 N   0  0  0  0  0  0  0  0  0  0  0  0
    3.5045   -0.0614   35.6231 C   0  0  0  0  0  0  0  0  0  0  0  0
    3.6112   -1.3939   36.0307 C   0  0  0  0  0  0  0  0  0  0  0  0
    0.3558   -5.0460   34.1776 N   0  0  0  0  0  0  0  0  0  0  0  0
    0.1984   -5.2134   32.8287 C   0  0  0  0  0  0  0  0  0  0  0  0
    0.5081   -4.3774   31.9909 O   0  0  0  0  0  0  0  0  0  0  0  0
   -0.4750   -6.4442   32.4664 C   0  0  0  0  0  0  0  0  0  0  0  0
   -0.6975   -6.9340   31.1590 C   0  0  0  0  0  0  0  0  0  0  0  0
   -1.4421   -8.0445   31.1357 N   0  0  0  0  0  0  0  0  0  0  0  0
   -1.6831   -8.2746   32.4372 N   0  0  0  0  0  0  0  0  0  0  0  0
   -1.0861   -7.3798   33.2745 C   0  0  0  0  0  0  0  0  0  0  0  0
    4.2623   -4.0242   34.2657 H   0  0  0  0  0  0  0  0  0  0  0  0
    4.6269   -5.5826   33.5290 H   0  0  0  0  0  0  0  0  0  0  0  0
    4.1311   -5.5559   35.2233 H   0  0  0  0  0  0  0  0  0  0  0  0
    2.1510   -5.4589   36.5730 H   0  0  0  0  0  0  0  0  0  0  0  0
    0.8627   -4.2849   36.5372 H   0  0  0  0  0  0  0  0  0  0  0  0
    0.4694   -2.4412   35.2092 H   0  0  0  0  0  0  0  0  0  0  0  0
    0.2956   -0.1275   34.4851 H   0  0  0  0  0  0  0  0  0  0  0  0
    4.3543    0.6067   35.7491 H   0  0  0  0  0  0  0  0  0  0  0  0
    4.5419   -1.7455   36.4705 H   0  0  0  0  0  0  0  0  0  0  0  0
   -0.3675   -6.4939   30.2265 H   0  0  0  0  0  0  0  0  0  0  0  0
   -2.2910   -9.0489   32.6853 H   0  0  0  0  0  0  0  0  0  0  0  0
   -1.1974   -7.4522   34.3473 H   0  0  0  0  0  0  0  0  0  0  0  0
  1  2  1  0
  2  3  1  0
  3  4  1  0
  4  5  1  0
  5  6  1  0
  6  7  2  0
  7  8  1  0
  8  9  2  0
  9 10  1  0
 10 11  3  0
  9 12  1  0
 12 13  2  0
  3 14  2  3
 14 15  1  0
 15 16  2  0
 15 17  1  0
 17 18  1  0
 18 19  2  0
 19 20  1  0
 20 21  1  0
 13  6  1  0
 21 17  2  0
  1 22  1  0
  1 23  1  0
  1 24  1  0
  4 25  1  0
  4 26  1  0
  7 27  1  0
  8 28  1  0
 12 29  1  0
 13 30  1  0
 18 31  1  0
 20 32  1  0
 21 33  1  0
M  END
>  <Energy>  (905) 
56.390373725344325

>  <compound_id>  (905) 
2198

>  <target_id>  (905) 
1

>  <reference_id>  (905) 
41

>  <inspiration_ids>  (905) 
[41, 135]

>  <energy_score>  (905) 
-21.343323627486

>  <distance_score>  (905) 
0.8963501633386612

>  <path>  (905) 
/opt/xchem-fragalysis-2/maxwin/BulkDock/SCRATCH/505732/C2198-P41/C2198-P41.minimised.mol

>  <scratch_subdir>  (905) 
/opt/xchem-fragalysis-2/maxwin/BulkDock/SCRATCH/505732/C2198-P41

>  <fragmenstein_runtime>  (905) 
1.674302339553833

>  <fragmenstein_outcome>  (905) 
acceptable

>  <fragmenstein_mode>  (905) 
expansion

>  <fragmenstein_error>  (905) 


$$$$
C2198-P135
     RDKit          3D

 33 34  0  0  0  0  0  0  0  0999 V2000
    3.3148   -6.1279   35.1874 C   0  0  0  0  0  0  0  0  0  0  0  0
    2.2215   -5.7735   34.3256 O   0  0  0  0  0  0  0  0  0  0  0  0
    1.1947   -5.0185   34.7744 C   0  0  0  0  0  0  0  0  0  0  0  0
    1.2894   -4.3417   36.1416 C   0  0  0  0  0  0  0  0  0  0  0  0
    2.5053   -3.6615   36.4287 O   0  0  0  0  0  0  0  0  0  0  0  0
    2.8445   -2.5795   35.6657 C   0  0  0  0  0  0  0  0  0  0  0  0
    2.0209   -1.9247   34.7497 C   0  0  0  0  0  0  0  0  0  0  0  0
    2.5049   -0.8263   34.0277 C   0  0  0  0  0  0  0  0  0  0  0  0
    3.8104   -0.3686   34.2268 C   0  0  0  0  0  0  0  0  0  0  0  0
    4.3047    0.7566   33.4887 C   0  0  0  0  0  0  0  0  0  0  0  0
    4.7153    1.6671   32.8976 N   0  0  0  0  0  0  0  0  0  0  0  0
    4.6307   -1.0131   35.1556 C   0  0  0  0  0  0  0  0  0  0  0  0
    4.1456   -2.1110   35.8711 C   0  0  0  0  0  0  0  0  0  0  0  0
    0.1245   -4.8440   34.0692 N   0  0  0  0  0  0  0  0  0  0  0  0
    0.2010   -5.1996   32.7528 C   0  0  0  0  0  0  0  0  0  0  0  0
    0.7066   -4.4806   31.9019 O   0  0  0  0  0  0  0  0  0  0  0  0
   -0.4530   -6.4444   32.4039 C   0  0  0  0  0  0  0  0  0  0  0  0
   -0.5603   -6.9941   31.1050 C   0  0  0  0  0  0  0  0  0  0  0  0
   -1.3006   -8.1057   31.0668 N   0  0  0  0  0  0  0  0  0  0  0  0
   -1.6383   -8.2911   32.3548 N   0  0  0  0  0  0  0  0  0  0  0  0
   -1.1302   -7.3458   33.1976 C   0  0  0  0  0  0  0  0  0  0  0  0
    4.0951   -5.3662   35.1226 H   0  0  0  0  0  0  0  0  0  0  0  0
    3.7267   -7.0736   34.8274 H   0  0  0  0  0  0  0  0  0  0  0  0
    2.9948   -6.2874   36.2200 H   0  0  0  0  0  0  0  0  0  0  0  0
    1.1638   -5.1251   36.8980 H   0  0  0  0  0  0  0  0  0  0  0  0
    0.4409   -3.6605   36.2838 H   0  0  0  0  0  0  0  0  0  0  0  0
    0.9946   -2.2301   34.5680 H   0  0  0  0  0  0  0  0  0  0  0  0
    1.8504   -0.3337   33.3097 H   0  0  0  0  0  0  0  0  0  0  0  0
    5.6478   -0.6675   35.3301 H   0  0  0  0  0  0  0  0  0  0  0  0
    4.7899   -2.6054   36.5949 H   0  0  0  0  0  0  0  0  0  0  0  0
   -0.1485   -6.5975   30.1848 H   0  0  0  0  0  0  0  0  0  0  0  0
   -2.2409   -9.0764   32.5836 H   0  0  0  0  0  0  0  0  0  0  0  0
   -1.3297   -7.3723   34.2591 H   0  0  0  0  0  0  0  0  0  0  0  0
  1  2  1  0
  2  3  1  0
  3  4  1  0
  4  5  1  0
  5  6  1  0
  6  7  2  0
  7  8  1  0
  8  9  2  0
  9 10  1  0
 10 11  3  0
  9 12  1  0
 12 13  2  0
  3 14  2  3
 14 15  1  0
 15 16  2  0
 15 17  1  0
 17 18  1  0
 18 19  2  0
 19 20  1  0
 20 21  1  0
 13  6  1  0
 21 17  2  0
  1 22  1  0
  1 23  1  0
  1 24  1  0
  4 25  1  0
  4 26  1  0
  7 27  1  0
  8 28  1  0
 12 29  1  0
 13 30  1  0
 18 31  1  0
 20 32  1  0
 21 33  1  0
M  END
>  <Energy>  (906) 
57.233692259967043

>  <compound_id>  (906) 
2198

>  <target_id>  (906) 
1

>  <reference_id>  (906) 
135

>  <inspiration_ids>  (906) 
[41, 135]

>  <energy_score>  (906) 
-20.50000509286218

>  <distance_score>  (906) 
0.9316274796449316

>  <path>  (906) 
/opt/xchem-fragalysis-2/maxwin/BulkDock/SCRATCH/505732/C2198-P135/C2198-P135.minimised.mol

>  <scratch_subdir>  (906) 
/opt/xchem-fragalysis-2/maxwin/BulkDock/SCRATCH/505732/C2198-P135

>  <fragmenstein_runtime>  (906) 
1.735914707183838

>  <fragmenstein_outcome>  (906) 
acceptable

>  <fragmenstein_mode>  (906) 
expansion

>  <fragmenstein_error>  (906) 


$$$$
C2199-P41
     RDKit          3D

 64 66  0  0  0  0  0  0  0  0999 V2000
   -1.9649   -0.9395   34.7028 C   0  0  0  0  0  0  0  0  0  0  0  0
   -0.6934   -1.5789   34.5957 O   0  0  0  0  0  0  0  0  0  0  0  0
    0.3636   -0.7133   34.5044 C   0  0  0  0  0  0  0  0  0  0  0  0
    0.2635    0.5099   34.5156 O   0  0  0  0  0  0  0  0  0  0  0  0
    1.6908   -1.5048   34.4045 C   0  0  0  0  0  0  0  0  0  0  0  0
    2.8251   -0.6248   34.0510 N   0  0  0  0  0  0  0  0  0  0  0  0
    2.7811   -0.1440   32.6543 C   0  0  0  0  0  0  0  0  0  0  0  0
    3.0851   -1.1770   31.5379 C   0  0  0  0  0  0  0  0  0  0  0  0
    1.8767   -1.9594   31.1867 N   0  0  0  0  0  0  0  0  0  0  0  0
    1.9247   -2.7992   29.8927 S   0  0  0  0  0  0  0  0  0  0  0  0
    3.1583   -3.1591   29.2229 O   0  0  0  0  0  0  0  0  0  0  0  0
    0.9655   -4.3003   30.0748 C   0  0  0  0  0  0  0  0  0  0  0  0
    1.7794   -5.4372   30.6705 C   0  0  0  0  0  0  0  0  0  0  0  0
    1.3844   -5.4283   32.1311 C   0  0  0  0  0  0  0  0  0  0  0  0
   -0.0573   -5.2036   32.0425 N   0  0  0  0  0  0  0  0  0  0  0  0
   -0.6297   -4.7672   33.3104 C   0  0  0  0  0  0  0  0  0  0  0  0
   -0.8017   -5.8437   34.2885 C   0  0  0  0  0  0  0  0  0  0  0  0
   -0.8071   -5.6777   35.6552 C   0  0  0  0  0  0  0  0  0  0  0  0
   -1.0367   -6.8576   36.2641 O   0  0  0  0  0  0  0  0  0  0  0  0
   -1.2656   -7.8152   35.3027 N   0  0  0  0  0  0  0  0  0  0  0  0
   -1.1113   -7.2031   34.1296 C   0  0  0  0  0  0  0  0  0  0  0  0
   -1.3710   -8.0475   32.4625 Br  0  0  0  0  0  0  0  0  0  0  0  0
   -0.2040   -4.1431   31.0320 C   0  0  0  0  0  0  0  0  0  0  0  0
    1.1362   -1.8130   28.7373 N   0  0  0  0  0  0  0  0  0  0  0  0
    1.8019   -0.5991   28.2772 C   0  0  0  0  0  0  0  0  0  0  0  0
   -0.3010   -1.5756   28.8198 C   0  0  0  0  0  0  0  0  0  0  0  0
    1.8841   -2.0700   35.7197 O   0  0  0  0  0  0  0  0  0  0  0  0
    2.4702   -3.3024   35.7500 C   0  0  0  0  0  0  0  0  0  0  0  0
    3.4037   -3.7521   34.8190 C   0  0  0  0  0  0  0  0  0  0  0  0
    3.7982   -5.0891   34.8201 C   0  0  0  0  0  0  0  0  0  0  0  0
    3.2892   -5.9684   35.7794 C   0  0  0  0  0  0  0  0  0  0  0  0
    3.5832   -7.3679   35.7023 C   0  0  0  0  0  0  0  0  0  0  0  0
    3.7812   -8.5032   35.5664 N   0  0  0  0  0  0  0  0  0  0  0  0
    2.4527   -5.4851   36.7882 C   0  0  0  0  0  0  0  0  0  0  0  0
    2.0551   -4.1470   36.7782 C   0  0  0  0  0  0  0  0  0  0  0  0
   -2.1705   -0.3462   33.8065 H   0  0  0  0  0  0  0  0  0  0  0  0
   -2.7292   -1.7167   34.7864 H   0  0  0  0  0  0  0  0  0  0  0  0
   -2.0069   -0.3154   35.6008 H   0  0  0  0  0  0  0  0  0  0  0  0
    1.5422   -2.2933   33.6627 H   0  0  0  0  0  0  0  0  0  0  0  0
    2.7464    0.1862   34.6691 H   0  0  0  0  0  0  0  0  0  0  0  0
    1.8404    0.3782   32.4440 H   0  0  0  0  0  0  0  0  0  0  0  0
    3.5668    0.6193   32.5876 H   0  0  0  0  0  0  0  0  0  0  0  0
    3.4387   -0.6237   30.6603 H   0  0  0  0  0  0  0  0  0  0  0  0
    3.8927   -1.8494   31.8485 H   0  0  0  0  0  0  0  0  0  0  0  0
    0.6390   -4.5683   29.0668 H   0  0  0  0  0  0  0  0  0  0  0  0
    2.8603   -5.3431   30.5389 H   0  0  0  0  0  0  0  0  0  0  0  0
    1.4624   -6.3805   30.2091 H   0  0  0  0  0  0  0  0  0  0  0  0
    1.8979   -4.6114   32.6449 H   0  0  0  0  0  0  0  0  0  0  0  0
    1.6337   -6.3728   32.6221 H   0  0  0  0  0  0  0  0  0  0  0  0
   -0.0153   -3.9744   33.7503 H   0  0  0  0  0  0  0  0  0  0  0  0
   -1.5989   -4.3054   33.1204 H   0  0  0  0  0  0  0  0  0  0  0  0
   -0.6886   -4.8274   36.3092 H   0  0  0  0  0  0  0  0  0  0  0  0
   -0.2526   -3.1498   31.4897 H   0  0  0  0  0  0  0  0  0  0  0  0
   -1.1465   -4.2701   30.5040 H   0  0  0  0  0  0  0  0  0  0  0  0
    2.8572   -0.7900   28.0560 H   0  0  0  0  0  0  0  0  0  0  0  0
    1.7498    0.1955   29.0291 H   0  0  0  0  0  0  0  0  0  0  0  0
    1.3575   -0.2235   27.3492 H   0  0  0  0  0  0  0  0  0  0  0  0
   -0.5577   -0.9816   29.7030 H   0  0  0  0  0  0  0  0  0  0  0  0
   -0.6787   -1.0557   27.9319 H   0  0  0  0  0  0  0  0  0  0  0  0
   -0.8507   -2.5193   28.8649 H   0  0  0  0  0  0  0  0  0  0  0  0
    3.8079   -3.0909   34.0587 H   0  0  0  0  0  0  0  0  0  0  0  0
    4.4879   -5.4419   34.0560 H   0  0  0  0  0  0  0  0  0  0  0  0
    2.0692   -6.1520   37.5592 H   0  0  0  0  0  0  0  0  0  0  0  0
    1.3716   -3.7799   37.5404 H   0  0  0  0  0  0  0  0  0  0  0  0
  1  2  1  0
  2  3  1  0
  3  4  2  0
  3  5  1  0
  5  6  1  0
  6  7  1  0
  7  8  1  0
  8  9  1  0
  9 10  2  0
 10 11  2  0
 10 12  1  0
 12 13  1  0
 13 14  1  0
 14 15  1  0
 15 16  1  0
 16 17  1  0
 17 18  2  0
 18 19  1  0
 19 20  1  0
 20 21  2  0
 21 22  1  0
 15 23  1  0
 10 24  1  0
 24 25  1  0
 24 26  1  0
  5 27  1  0
 27 28  1  0
 28 29  2  0
 29 30  1  0
 30 31  2  0
 31 32  1  0
 32 33  3  0
 31 34  1  0
 34 35  2  0
 23 12  1  0
 35 28  1  0
 21 17  1  0
  1 36  1  0
  1 37  1  0
  1 38  1  0
  5 39  1  0
  6 40  1  0
  7 41  1  0
  7 42  1  0
  8 43  1  0
  8 44  1  0
 12 45  1  0
 13 46  1  0
 13 47  1  0
 14 48  1  0
 14 49  1  0
 16 50  1  0
 16 51  1  0
 18 52  1  0
 23 53  1  0
 23 54  1  0
 25 55  1  0
 25 56  1  0
 25 57  1  0
 26 58  1  0
 26 59  1  0
 26 60  1  0
 29 61  1  0
 30 62  1  0
 34 63  1  0
 35 64  1  0
M  END
>  <Energy>  (907) 
22.097160557281583

>  <compound_id>  (907) 
2199

>  <target_id>  (907) 
1

>  <reference_id>  (907) 
41

>  <inspiration_ids>  (907) 
[41, 136]

>  <energy_score>  (907) 
-74.4082108551147

>  <distance_score>  (907) 
3.2845257090689377

>  <path>  (907) 
/opt/xchem-fragalysis-2/maxwin/BulkDock/SCRATCH/505732/C2199-P41/C2199-P41.minimised.mol

>  <scratch_subdir>  (907) 
/opt/xchem-fragalysis-2/maxwin/BulkDock/SCRATCH/505732/C2199-P41

>  <fragmenstein_runtime>  (907) 
37.77806353569031

>  <fragmenstein_outcome>  (907) 
too moved

>  <fragmenstein_mode>  (907) 
expansion

>  <fragmenstein_error>  (907) 


$$$$
C2199-P136
     RDKit          3D

 64 66  0  0  0  0  0  0  0  0999 V2000
   -2.5218   -2.7497   39.1382 C   0  0  0  0  0  0  0  0  0  0  0  0
   -1.9902   -2.6414   37.8166 O   0  0  0  0  0  0  0  0  0  0  0  0
   -0.6644   -2.3055   37.7759 C   0  0  0  0  0  0  0  0  0  0  0  0
    0.0394   -2.1479   38.7679 O   0  0  0  0  0  0  0  0  0  0  0  0
   -0.1850   -2.1611   36.2983 C   0  0  0  0  0  0  0  0  0  0  0  0
   -0.8453   -0.9492   35.7463 N   0  0  0  0  0  0  0  0  0  0  0  0
   -0.6642   -0.8078   34.2898 C   0  0  0  0  0  0  0  0  0  0  0  0
   -1.6280   -1.6685   33.4377 C   0  0  0  0  0  0  0  0  0  0  0  0
   -1.3482   -1.5954   31.9837 N   0  0  0  0  0  0  0  0  0  0  0  0
   -0.0380   -2.1453   31.3977 S   0  0  0  0  0  0  0  0  0  0  0  0
    1.2582   -2.0266   32.0348 O   0  0  0  0  0  0  0  0  0  0  0  0
   -0.2558   -3.8652   30.9581 C   0  0  0  0  0  0  0  0  0  0  0  0
    0.9758   -4.4555   30.2873 C   0  0  0  0  0  0  0  0  0  0  0  0
    1.6547   -5.2174   31.4074 C   0  0  0  0  0  0  0  0  0  0  0  0
    0.5097   -5.8054   32.1044 N   0  0  0  0  0  0  0  0  0  0  0  0
    0.8876   -6.3572   33.4021 C   0  0  0  0  0  0  0  0  0  0  0  0
   -0.2567   -6.8735   34.1568 C   0  0  0  0  0  0  0  0  0  0  0  0
   -0.5096   -6.7025   35.4968 C   0  0  0  0  0  0  0  0  0  0  0  0
   -1.6767   -7.2920   35.8193 O   0  0  0  0  0  0  0  0  0  0  0  0
   -2.2259   -7.8630   34.6956 N   0  0  0  0  0  0  0  0  0  0  0  0
   -1.3401   -7.6515   33.7218 C   0  0  0  0  0  0  0  0  0  0  0  0
   -1.5558   -8.2378   31.9414 Br  0  0  0  0  0  0  0  0  0  0  0  0
   -0.4326   -4.6898   32.2251 C   0  0  0  0  0  0  0  0  0  0  0  0
    0.1475   -1.2494   29.9458 N   0  0  0  0  0  0  0  0  0  0  0  0
    0.5392    0.1532   30.0753 C   0  0  0  0  0  0  0  0  0  0  0  0
   -0.8799   -1.3557   28.9083 C   0  0  0  0  0  0  0  0  0  0  0  0
    1.2307   -1.9864   36.2152 O   0  0  0  0  0  0  0  0  0  0  0  0
    1.9812   -3.1146   36.0735 C   0  0  0  0  0  0  0  0  0  0  0  0
    2.8754   -3.1335   35.0017 C   0  0  0  0  0  0  0  0  0  0  0  0
    3.7154   -4.2308   34.8051 C   0  0  0  0  0  0  0  0  0  0  0  0
    3.6795   -5.3028   35.7017 C   0  0  0  0  0  0  0  0  0  0  0  0
    4.5198   -6.4456   35.5083 C   0  0  0  0  0  0  0  0  0  0  0  0
    5.1599   -7.3977   35.3355 N   0  0  0  0  0  0  0  0  0  0  0  0
    2.8108   -5.2623   36.7981 C   0  0  0  0  0  0  0  0  0  0  0  0
    1.9653   -4.1655   36.9868 C   0  0  0  0  0  0  0  0  0  0  0  0
   -2.1108   -3.6323   39.6369 H   0  0  0  0  0  0  0  0  0  0  0  0
   -2.3153   -1.8450   39.7192 H   0  0  0  0  0  0  0  0  0  0  0  0
   -3.6064   -2.8589   39.0586 H   0  0  0  0  0  0  0  0  0  0  0  0
   -0.5030   -3.0616   35.7566 H   0  0  0  0  0  0  0  0  0  0  0  0
   -0.3763   -0.1610   36.1966 H   0  0  0  0  0  0  0  0  0  0  0  0
   -0.8566    0.2431   34.0373 H   0  0  0  0  0  0  0  0  0  0  0  0
    0.3837   -0.9784   34.0339 H   0  0  0  0  0  0  0  0  0  0  0  0
   -1.6234   -2.7079   33.7698 H   0  0  0  0  0  0  0  0  0  0  0  0
   -2.6514   -1.3068   33.5964 H   0  0  0  0  0  0  0  0  0  0  0  0
   -1.1301   -3.9312   30.3075 H   0  0  0  0  0  0  0  0  0  0  0  0
    1.6402   -3.7183   29.8277 H   0  0  0  0  0  0  0  0  0  0  0  0
    0.6637   -5.1565   29.5052 H   0  0  0  0  0  0  0  0  0  0  0  0
    2.2316   -4.5388   32.0464 H   0  0  0  0  0  0  0  0  0  0  0  0
    2.3312   -5.9716   31.0087 H   0  0  0  0  0  0  0  0  0  0  0  0
    1.3850   -5.5881   33.9981 H   0  0  0  0  0  0  0  0  0  0  0  0
    1.6147   -7.1575   33.2677 H   0  0  0  0  0  0  0  0  0  0  0  0
   -0.0040   -6.2137   36.3130 H   0  0  0  0  0  0  0  0  0  0  0  0
   -0.1995   -4.1105   33.1243 H   0  0  0  0  0  0  0  0  0  0  0  0
   -1.4610   -5.0416   32.3112 H   0  0  0  0  0  0  0  0  0  0  0  0
    1.4069    0.2565   30.7355 H   0  0  0  0  0  0  0  0  0  0  0  0
   -0.2730    0.7628   30.4861 H   0  0  0  0  0  0  0  0  0  0  0  0
    0.8377    0.5740   29.1086 H   0  0  0  0  0  0  0  0  0  0  0  0
   -0.5480   -0.8861   27.9759 H   0  0  0  0  0  0  0  0  0  0  0  0
   -1.0859   -2.4017   28.6662 H   0  0  0  0  0  0  0  0  0  0  0  0
   -1.8166   -0.8821   29.2185 H   0  0  0  0  0  0  0  0  0  0  0  0
    2.9092   -2.2933   34.3094 H   0  0  0  0  0  0  0  0  0  0  0  0
    4.3982   -4.2327   33.9578 H   0  0  0  0  0  0  0  0  0  0  0  0
    2.7933   -6.0765   37.5220 H   0  0  0  0  0  0  0  0  0  0  0  0
    1.3377   -4.1398   37.8727 H   0  0  0  0  0  0  0  0  0  0  0  0
  1  2  1  0
  2  3  1  0
  3  4  2  0
  3  5  1  0
  5  6  1  0
  6  7  1  0
  7  8  1  0
  8  9  1  0
  9 10  2  0
 10 11  2  0
 10 12  1  0
 12 13  1  0
 13 14  1  0
 14 15  1  0
 15 16  1  0
 16 17  1  0
 17 18  2  0
 18 19  1  0
 19 20  1  0
 20 21  2  0
 21 22  1  0
 15 23  1  0
 10 24  1  0
 24 25  1  0
 24 26  1  0
  5 27  1  0
 27 28  1  0
 28 29  2  0
 29 30  1  0
 30 31  2  0
 31 32  1  0
 32 33  3  0
 31 34  1  0
 34 35  2  0
 23 12  1  0
 35 28  1  0
 21 17  1  0
  1 36  1  0
  1 37  1  0
  1 38  1  0
  5 39  1  0
  6 40  1  0
  7 41  1  0
  7 42  1  0
  8 43  1  0
  8 44  1  0
 12 45  1  0
 13 46  1  0
 13 47  1  0
 14 48  1  0
 14 49  1  0
 16 50  1  0
 16 51  1  0
 18 52  1  0
 23 53  1  0
 23 54  1  0
 25 55  1  0
 25 56  1  0
 25 57  1  0
 26 58  1  0
 26 59  1  0
 26 60  1  0
 29 61  1  0
 30 62  1  0
 34 63  1  0
 35 64  1  0
M  END
>  <Energy>  (908) 
22.316852016531222

>  <compound_id>  (908) 
2199

>  <target_id>  (908) 
1

>  <reference_id>  (908) 
136

>  <inspiration_ids>  (908) 
[41, 136]

>  <energy_score>  (908) 
-74.18851939586557

>  <distance_score>  (908) 
3.3910287817786604

>  <path>  (908) 
/opt/xchem-fragalysis-2/maxwin/BulkDock/SCRATCH/505732/C2199-P136/C2199-P136.minimised.mol

>  <scratch_subdir>  (908) 
/opt/xchem-fragalysis-2/maxwin/BulkDock/SCRATCH/505732/C2199-P136

>  <fragmenstein_runtime>  (908) 
24.4063081741333

>  <fragmenstein_outcome>  (908) 
too moved

>  <fragmenstein_mode>  (908) 
expansion

>  <fragmenstein_error>  (908) 


$$$$
C2202-P41
     RDKit          3D

 52 55  0  0  0  0  0  0  0  0999 V2000
   -1.3672   -2.8964   29.7627 C   0  0  0  0  0  0  0  0  0  0  0  0
    0.0547   -2.6333   30.1408 C   0  0  0  0  0  0  0  0  0  0  0  0
    0.6017   -1.4165   29.6866 C   0  0  0  0  0  0  0  0  0  0  0  0
    1.9246   -1.0750   29.9412 C   0  0  0  0  0  0  0  0  0  0  0  0
    2.7267   -1.9420   30.6631 C   0  0  0  0  0  0  0  0  0  0  0  0
    2.2102   -3.1604   31.1079 C   0  0  0  0  0  0  0  0  0  0  0  0
    0.8736   -3.5383   30.8451 C   0  0  0  0  0  0  0  0  0  0  0  0
    0.4235   -4.8059   31.3387 N   0  0  0  0  0  0  0  0  0  0  0  0
    1.1882   -5.7383   31.9982 C   0  0  0  0  0  0  0  0  0  0  0  0
    0.2827   -6.4500   32.7543 C   0  0  0  0  0  0  0  0  0  0  0  0
    0.6095   -7.1213   33.9897 C   0  0  0  0  0  0  0  0  0  0  0  0
   -0.3989   -7.4513   34.8132 O   0  0  0  0  0  0  0  0  0  0  0  0
    1.8528   -7.2772   34.2632 N   0  0  0  0  0  0  0  0  0  0  0  0
    2.2155   -7.5420   35.6374 C   0  0  0  0  0  0  0  0  0  0  0  0
    3.6242   -7.1798   35.7409 N   0  0  0  0  0  0  0  0  0  0  0  0
    3.9961   -5.9787   35.9895 C   0  0  0  0  0  0  0  0  0  0  0  0
    5.3095   -5.7320   36.0923 O   0  0  0  0  0  0  0  0  0  0  0  0
    3.1902   -4.7588   36.1977 C   0  0  0  0  0  0  0  0  0  0  0  0
    3.3665   -4.0308   37.3694 C   0  0  0  0  0  0  0  0  0  0  0  0
    2.5383   -2.9449   37.6392 C   0  0  0  0  0  0  0  0  0  0  0  0
    1.5332   -2.5861   36.7388 C   0  0  0  0  0  0  0  0  0  0  0  0
    1.3930   -3.2470   35.5184 C   0  0  0  0  0  0  0  0  0  0  0  0
    0.3764   -2.9668   34.6053 N   0  0  0  0  0  0  0  0  0  0  0  0
   -0.8517   -2.3240   34.7192 C   0  0  0  0  0  0  0  0  0  0  0  0
   -1.3626   -1.9817   35.9125 N   0  0  0  0  0  0  0  0  0  0  0  0
   -2.5679   -1.3849   35.9146 C   0  0  0  0  0  0  0  0  0  0  0  0
   -3.2764   -1.1007   34.7748 C   0  0  0  0  0  0  0  0  0  0  0  0
   -2.6670   -1.4729   33.6036 C   0  0  0  0  0  0  0  0  0  0  0  0
   -1.4629   -2.0702   33.5489 N   0  0  0  0  0  0  0  0  0  0  0  0
    2.2580   -4.3176   35.2551 C   0  0  0  0  0  0  0  0  0  0  0  0
   -0.9635   -6.2184   32.2654 N   0  0  0  0  0  0  0  0  0  0  0  0
   -0.8570   -5.2595   31.3482 N   0  0  0  0  0  0  0  0  0  0  0  0
   -1.8089   -2.0590   29.2122 H   0  0  0  0  0  0  0  0  0  0  0  0
   -1.9867   -3.0535   30.6489 H   0  0  0  0  0  0  0  0  0  0  0  0
   -1.3834   -3.7595   29.0988 H   0  0  0  0  0  0  0  0  0  0  0  0
   -0.0100   -0.7214   29.1111 H   0  0  0  0  0  0  0  0  0  0  0  0
    2.3206   -0.1290   29.5808 H   0  0  0  0  0  0  0  0  0  0  0  0
    3.7581   -1.6735   30.8788 H   0  0  0  0  0  0  0  0  0  0  0  0
    2.8982   -3.7830   31.6715 H   0  0  0  0  0  0  0  0  0  0  0  0
    2.2621   -5.6878   32.0677 H   0  0  0  0  0  0  0  0  0  0  0  0
   -1.2624   -7.2669   34.4036 H   0  0  0  0  0  0  0  0  0  0  0  0
    1.6023   -6.9988   36.3665 H   0  0  0  0  0  0  0  0  0  0  0  0
    2.1169   -8.6109   35.8546 H   0  0  0  0  0  0  0  0  0  0  0  0
    5.7682   -6.5772   35.9507 H   0  0  0  0  0  0  0  0  0  0  0  0
    4.1167   -4.3305   38.0971 H   0  0  0  0  0  0  0  0  0  0  0  0
    2.6485   -2.3944   38.5703 H   0  0  0  0  0  0  0  0  0  0  0  0
    0.8785   -1.7572   36.9963 H   0  0  0  0  0  0  0  0  0  0  0  0
    0.5533   -3.1466   33.6313 H   0  0  0  0  0  0  0  0  0  0  0  0
   -2.9583   -1.1407   36.8977 H   0  0  0  0  0  0  0  0  0  0  0  0
   -4.2496   -0.6352   34.8011 H   0  0  0  0  0  0  0  0  0  0  0  0
   -3.1429   -1.3108   32.6419 H   0  0  0  0  0  0  0  0  0  0  0  0
    2.1952   -4.8361   34.3128 H   0  0  0  0  0  0  0  0  0  0  0  0
  1  2  1  0
  2  3  2  0
  3  4  1  0
  4  5  2  0
  5  6  1  0
  6  7  2  0
  7  8  1  0
  8  9  1  0
  9 10  2  0
 10 11  1  0
 11 12  1  0
 11 13  2  3
 13 14  1  0
 14 15  1  0
 15 16  2  3
 16 17  1  0
 16 18  1  0
 18 19  2  0
 19 20  1  0
 20 21  2  0
 21 22  1  0
 22 23  1  0
 23 24  1  0
 24 25  2  0
 25 26  1  0
 26 27  2  0
 27 28  1  0
 28 29  2  0
 22 30  2  0
 10 31  1  0
 31 32  2  0
  7  2  1  0
 32  8  1  0
 30 18  1  0
 29 24  1  0
  1 33  1  0
  1 34  1  0
  1 35  1  0
  3 36  1  0
  4 37  1  0
  5 38  1  0
  6 39  1  0
  9 40  1  0
 12 41  1  0
 14 42  1  0
 14 43  1  0
 17 44  1  0
 19 45  1  0
 20 46  1  0
 21 47  1  0
 23 48  1  0
 26 49  1  0
 27 50  1  0
 28 51  1  0
 30 52  1  0
M  END
>  <Energy>  (909) 
-25.592895069163902

>  <compound_id>  (909) 
2202

>  <target_id>  (909) 
1

>  <reference_id>  (909) 
41

>  <inspiration_ids>  (909) 
[41, 142]

>  <energy_score>  (909) 
-47.63720104950269

>  <distance_score>  (909) 
1.7849079792279612

>  <path>  (909) 
/opt/xchem-fragalysis-2/maxwin/BulkDock/SCRATCH/505732/C2202-P41/C2202-P41.minimised.mol

>  <scratch_subdir>  (909) 
/opt/xchem-fragalysis-2/maxwin/BulkDock/SCRATCH/505732/C2202-P41

>  <fragmenstein_runtime>  (909) 
40.820316791534424

>  <fragmenstein_outcome>  (909) 
too moved

>  <fragmenstein_mode>  (909) 
expansion

>  <fragmenstein_error>  (909) 


$$$$
C2202-P142
     RDKit          3D

 52 55  0  0  0  0  0  0  0  0999 V2000
   -1.2231   -3.1849   29.2956 C   0  0  0  0  0  0  0  0  0  0  0  0
    0.0395   -2.7483   29.9557 C   0  0  0  0  0  0  0  0  0  0  0  0
    0.7482   -1.6954   29.3464 C   0  0  0  0  0  0  0  0  0  0  0  0
    1.9062   -1.1815   29.9190 C   0  0  0  0  0  0  0  0  0  0  0  0
    2.3668   -1.7060   31.1171 C   0  0  0  0  0  0  0  0  0  0  0  0
    1.6773   -2.7567   31.7249 C   0  0  0  0  0  0  0  0  0  0  0  0
    0.5199   -3.3073   31.1470 C   0  0  0  0  0  0  0  0  0  0  0  0
   -0.0666   -4.4413   31.7830 N   0  0  0  0  0  0  0  0  0  0  0  0
    0.0307   -4.7552   33.1129 C   0  0  0  0  0  0  0  0  0  0  0  0
   -0.1095   -6.1205   33.1742 C   0  0  0  0  0  0  0  0  0  0  0  0
    0.2704   -6.9664   34.2912 C   0  0  0  0  0  0  0  0  0  0  0  0
   -0.6942   -7.7736   34.7689 O   0  0  0  0  0  0  0  0  0  0  0  0
    1.4384   -7.0148   34.8398 N   0  0  0  0  0  0  0  0  0  0  0  0
    2.4666   -6.1788   34.2470 C   0  0  0  0  0  0  0  0  0  0  0  0
    3.7485   -6.3422   34.9127 N   0  0  0  0  0  0  0  0  0  0  0  0
    4.1076   -5.4809   35.7925 C   0  0  0  0  0  0  0  0  0  0  0  0
    5.2953   -5.6401   36.3920 O   0  0  0  0  0  0  0  0  0  0  0  0
    3.3946   -4.3014   36.3078 C   0  0  0  0  0  0  0  0  0  0  0  0
    3.0648   -4.2795   37.6563 C   0  0  0  0  0  0  0  0  0  0  0  0
    2.2158   -3.2923   38.1438 C   0  0  0  0  0  0  0  0  0  0  0  0
    1.6563   -2.3619   37.2729 C   0  0  0  0  0  0  0  0  0  0  0  0
    1.9788   -2.3789   35.9134 C   0  0  0  0  0  0  0  0  0  0  0  0
    1.3902   -1.4816   35.0003 N   0  0  0  0  0  0  0  0  0  0  0  0
    0.0155   -1.1803   35.0152 C   0  0  0  0  0  0  0  0  0  0  0  0
   -0.3010    0.1045   34.7857 N   0  0  0  0  0  0  0  0  0  0  0  0
   -1.6056    0.4301   34.8424 C   0  0  0  0  0  0  0  0  0  0  0  0
   -2.6020   -0.4734   35.1087 C   0  0  0  0  0  0  0  0  0  0  0  0
   -2.1776   -1.7600   35.3206 C   0  0  0  0  0  0  0  0  0  0  0  0
   -0.8869   -2.1344   35.2780 N   0  0  0  0  0  0  0  0  0  0  0  0
    2.9343   -3.2902   35.4603 C   0  0  0  0  0  0  0  0  0  0  0  0
   -0.5800   -6.5613   31.9655 N   0  0  0  0  0  0  0  0  0  0  0  0
   -0.5867   -5.5209   31.1294 N   0  0  0  0  0  0  0  0  0  0  0  0
   -1.0717   -4.1561   28.8242 H   0  0  0  0  0  0  0  0  0  0  0  0
   -1.5406   -2.4714   28.5282 H   0  0  0  0  0  0  0  0  0  0  0  0
   -2.0235   -3.2238   30.0372 H   0  0  0  0  0  0  0  0  0  0  0  0
    0.3869   -1.2631   28.4122 H   0  0  0  0  0  0  0  0  0  0  0  0
    2.4354   -0.3648   29.4356 H   0  0  0  0  0  0  0  0  0  0  0  0
    3.2662   -1.3046   31.5767 H   0  0  0  0  0  0  0  0  0  0  0  0
    2.0932   -3.1617   32.6375 H   0  0  0  0  0  0  0  0  0  0  0  0
    0.3136   -4.0257   33.8554 H   0  0  0  0  0  0  0  0  0  0  0  0
   -1.4499   -7.8530   34.1652 H   0  0  0  0  0  0  0  0  0  0  0  0
    2.5977   -6.4462   33.1974 H   0  0  0  0  0  0  0  0  0  0  0  0
    2.1623   -5.1438   34.2320 H   0  0  0  0  0  0  0  0  0  0  0  0
    5.6891   -6.4541   36.0355 H   0  0  0  0  0  0  0  0  0  0  0  0
    3.4307   -5.0547   38.3257 H   0  0  0  0  0  0  0  0  0  0  0  0
    1.9447   -3.2808   39.1968 H   0  0  0  0  0  0  0  0  0  0  0  0
    0.9465   -1.6369   37.6647 H   0  0  0  0  0  0  0  0  0  0  0  0
    1.8353   -0.5681   35.0323 H   0  0  0  0  0  0  0  0  0  0  0  0
   -1.8268    1.4783   34.6694 H   0  0  0  0  0  0  0  0  0  0  0  0
   -3.6446   -0.1964   35.1573 H   0  0  0  0  0  0  0  0  0  0  0  0
   -2.8807   -2.5535   35.5469 H   0  0  0  0  0  0  0  0  0  0  0  0
    3.2615   -3.2706   34.4279 H   0  0  0  0  0  0  0  0  0  0  0  0
  1  2  1  0
  2  3  2  0
  3  4  1  0
  4  5  2  0
  5  6  1  0
  6  7  2  0
  7  8  1  0
  8  9  1  0
  9 10  2  0
 10 11  1  0
 11 12  1  0
 11 13  2  3
 13 14  1  0
 14 15  1  0
 15 16  2  3
 16 17  1  0
 16 18  1  0
 18 19  2  0
 19 20  1  0
 20 21  2  0
 21 22  1  0
 22 23  1  0
 23 24  1  0
 24 25  2  0
 25 26  1  0
 26 27  2  0
 27 28  1  0
 28 29  2  0
 22 30  2  0
 10 31  1  0
 31 32  2  0
  7  2  1  0
 32  8  1  0
 30 18  1  0
 29 24  1  0
  1 33  1  0
  1 34  1  0
  1 35  1  0
  3 36  1  0
  4 37  1  0
  5 38  1  0
  6 39  1  0
  9 40  1  0
 12 41  1  0
 14 42  1  0
 14 43  1  0
 17 44  1  0
 19 45  1  0
 20 46  1  0
 21 47  1  0
 23 48  1  0
 26 49  1  0
 27 50  1  0
 28 51  1  0
 30 52  1  0
M  END
>  <Energy>  (910) 
-7.7030587790385283

>  <compound_id>  (910) 
2202

>  <target_id>  (910) 
1

>  <reference_id>  (910) 
142

>  <inspiration_ids>  (910) 
[41, 142]

>  <energy_score>  (910) 
-29.74736475938053

>  <distance_score>  (910) 
2.017979813399567

>  <path>  (910) 
/opt/xchem-fragalysis-2/maxwin/BulkDock/SCRATCH/505732/C2202-P142/C2202-P142.minimised.mol

>  <scratch_subdir>  (910) 
/opt/xchem-fragalysis-2/maxwin/BulkDock/SCRATCH/505732/C2202-P142

>  <fragmenstein_runtime>  (910) 
37.621941566467285

>  <fragmenstein_outcome>  (910) 
too moved

>  <fragmenstein_mode>  (910) 
expansion

>  <fragmenstein_error>  (910) 


$$$$
C2204-P41
     RDKit          3D

 60 64  0  0  0  0  0  0  0  0999 V2000
    8.1714   -6.8289   36.6346 C   0  0  0  0  0  0  0  0  0  0  0  0
    7.5323   -7.9137   35.8066 C   0  0  0  0  0  0  0  0  0  0  0  0
    8.0324   -8.0929   34.5046 C   0  0  0  0  0  0  0  0  0  0  0  0
    7.5409   -9.0893   33.6657 C   0  0  0  0  0  0  0  0  0  0  0  0
    6.5244   -9.9255   34.1049 C   0  0  0  0  0  0  0  0  0  0  0  0
    6.0011   -9.7628   35.3845 C   0  0  0  0  0  0  0  0  0  0  0  0
    6.4817   -8.7506   36.2429 C   0  0  0  0  0  0  0  0  0  0  0  0
    5.8119   -8.5503   37.4827 N   0  0  0  0  0  0  0  0  0  0  0  0
    4.8010   -9.3068   38.0294 C   0  0  0  0  0  0  0  0  0  0  0  0
    4.1781   -8.4544   38.9157 C   0  0  0  0  0  0  0  0  0  0  0  0
    2.8912   -8.6178   39.5628 C   0  0  0  0  0  0  0  0  0  0  0  0
    2.6739   -8.2532   40.7128 O   0  0  0  0  0  0  0  0  0  0  0  0
    1.9087   -9.2361   38.8336 O   0  0  0  0  0  0  0  0  0  0  0  0
    1.7457   -9.0019   37.4129 C   0  0  0  0  0  0  0  0  0  0  0  0
    1.3557   -7.5468   37.1103 C   0  0  0  0  0  0  0  0  0  0  0  0
    0.5890   -7.3832   35.8118 C   0  0  0  0  0  0  0  0  0  0  0  0
   -0.6422   -7.9181   35.8152 C   0  0  0  0  0  0  0  0  0  0  0  0
   -1.6466   -7.6059   34.7958 C   0  0  0  0  0  0  0  0  0  0  0  0
   -2.8017   -7.9860   34.9503 O   0  0  0  0  0  0  0  0  0  0  0  0
   -1.2113   -6.8118   33.7708 N   0  0  0  0  0  0  0  0  0  0  0  0
    0.0436   -6.2616   33.7332 C   0  0  0  0  0  0  0  0  0  0  0  0
    0.9636   -6.5354   34.6789 C   0  0  0  0  0  0  0  0  0  0  0  0
    2.1986   -5.9866   34.5380 N   0  0  0  0  0  0  0  0  0  0  0  0
    3.4896   -6.4360   34.9897 C   0  0  0  0  0  0  0  0  0  0  0  0
    3.8166   -7.4492   35.5376 O   0  0  0  0  0  0  0  0  0  0  0  0
    4.5272   -5.3445   34.7195 C   0  0  0  0  0  0  0  0  0  0  0  0
    4.2445   -4.1119   35.5326 C   0  0  0  0  0  0  0  0  0  0  0  0
    4.6574   -4.0192   36.8695 C   0  0  0  0  0  0  0  0  0  0  0  0
    4.3163   -2.9028   37.6540 C   0  0  0  0  0  0  0  0  0  0  0  0
    3.5492   -1.8651   37.1201 C   0  0  0  0  0  0  0  0  0  0  0  0
    3.1472   -1.9764   35.8084 C   0  0  0  0  0  0  0  0  0  0  0  0
    3.4810   -3.0666   35.0390 C   0  0  0  0  0  0  0  0  0  0  0  0
    2.9253   -3.0078   33.7941 O   0  0  0  0  0  0  0  0  0  0  0  0
    2.2772   -1.7143   33.8497 C   0  0  0  0  0  0  0  0  0  0  0  0
    2.3798   -1.0785   35.1362 O   0  0  0  0  0  0  0  0  0  0  0  0
    4.9811   -7.3667   39.1062 N   0  0  0  0  0  0  0  0  0  0  0  0
    5.9936   -7.4554   38.2567 N   0  0  0  0  0  0  0  0  0  0  0  0
    9.0868   -6.4538   36.1625 H   0  0  0  0  0  0  0  0  0  0  0  0
    7.4953   -5.9761   36.7435 H   0  0  0  0  0  0  0  0  0  0  0  0
    8.4725   -7.2130   37.6142 H   0  0  0  0  0  0  0  0  0  0  0  0
    8.8355   -7.4564   34.1352 H   0  0  0  0  0  0  0  0  0  0  0  0
    7.9514   -9.2036   32.6671 H   0  0  0  0  0  0  0  0  0  0  0  0
    6.1210  -10.6935   33.4465 H   0  0  0  0  0  0  0  0  0  0  0  0
    5.1837  -10.4213   35.6614 H   0  0  0  0  0  0  0  0  0  0  0  0
    4.5307  -10.2855   37.6685 H   0  0  0  0  0  0  0  0  0  0  0  0
    0.9429   -9.6870   37.1195 H   0  0  0  0  0  0  0  0  0  0  0  0
    2.6105   -9.3270   36.8344 H   0  0  0  0  0  0  0  0  0  0  0  0
    0.7031   -7.1976   37.9259 H   0  0  0  0  0  0  0  0  0  0  0  0
    2.2129   -6.8760   37.1959 H   0  0  0  0  0  0  0  0  0  0  0  0
   -0.9931   -8.5542   36.6107 H   0  0  0  0  0  0  0  0  0  0  0  0
   -1.8925   -6.5728   33.0635 H   0  0  0  0  0  0  0  0  0  0  0  0
    0.2475   -5.6234   32.8796 H   0  0  0  0  0  0  0  0  0  0  0  0
    2.3095   -5.1071   34.0381 H   0  0  0  0  0  0  0  0  0  0  0  0
    4.5477   -5.1212   33.6463 H   0  0  0  0  0  0  0  0  0  0  0  0
    5.5225   -5.7315   34.9642 H   0  0  0  0  0  0  0  0  0  0  0  0
    5.2335   -4.8231   37.3281 H   0  0  0  0  0  0  0  0  0  0  0  0
    4.6432   -2.8574   38.6913 H   0  0  0  0  0  0  0  0  0  0  0  0
    3.2729   -1.0055   37.7206 H   0  0  0  0  0  0  0  0  0  0  0  0
    2.7317   -1.0627   33.0943 H   0  0  0  0  0  0  0  0  0  0  0  0
    1.2169   -1.8485   33.6072 H   0  0  0  0  0  0  0  0  0  0  0  0
  1  2  1  0
  2  3  2  0
  3  4  1  0
  4  5  2  0
  5  6  1  0
  6  7  2  0
  7  8  1  0
  8  9  1  0
  9 10  2  0
 10 11  1  0
 11 12  2  0
 11 13  1  0
 13 14  1  0
 14 15  1  0
 15 16  1  0
 16 17  2  0
 17 18  1  0
 18 19  2  0
 18 20  1  0
 20 21  1  0
 21 22  2  0
 22 23  1  0
 23 24  1  0
 24 25  2  0
 24 26  1  0
 26 27  1  0
 27 28  2  0
 28 29  1  0
 29 30  2  0
 30 31  1  0
 31 32  2  0
 32 33  1  0
 33 34  1  0
 34 35  1  0
 10 36  1  0
 36 37  2  0
  7  2  1  0
 37  8  1  0
 22 16  1  0
 32 27  1  0
 35 31  1  0
  1 38  1  0
  1 39  1  0
  1 40  1  0
  3 41  1  0
  4 42  1  0
  5 43  1  0
  6 44  1  0
  9 45  1  0
 14 46  1  0
 14 47  1  0
 15 48  1  0
 15 49  1  0
 17 50  1  0
 20 51  1  0
 21 52  1  0
 23 53  1  0
 26 54  1  0
 26 55  1  0
 28 56  1  0
 29 57  1  0
 30 58  1  0
 34 59  1  0
 34 60  1  0
M  END
>  <Energy>  (911) 
114.12353999501147

>  <compound_id>  (911) 
2204

>  <target_id>  (911) 
1

>  <reference_id>  (911) 
41

>  <inspiration_ids>  (911) 
[41, 148]

>  <energy_score>  (911) 
-131.66522895523613

>  <distance_score>  (911) 
3.5196817503772255

>  <path>  (911) 
/opt/xchem-fragalysis-2/maxwin/BulkDock/SCRATCH/505732/C2204-P41/C2204-P41.minimised.mol

>  <scratch_subdir>  (911) 
/opt/xchem-fragalysis-2/maxwin/BulkDock/SCRATCH/505732/C2204-P41

>  <fragmenstein_runtime>  (911) 
9.005653858184814

>  <fragmenstein_outcome>  (911) 
too moved

>  <fragmenstein_mode>  (911) 
expansion

>  <fragmenstein_error>  (911) 


$$$$
C2204-P148
     RDKit          3D

 60 64  0  0  0  0  0  0  0  0999 V2000
    2.6194   -9.6620   39.9187 C   0  0  0  0  0  0  0  0  0  0  0  0
    2.2755   -8.4905   39.0353 C   0  0  0  0  0  0  0  0  0  0  0  0
    0.9486   -8.0282   38.9998 C   0  0  0  0  0  0  0  0  0  0  0  0
    0.6053   -6.8231   38.3954 C   0  0  0  0  0  0  0  0  0  0  0  0
    1.5965   -6.0496   37.8190 C   0  0  0  0  0  0  0  0  0  0  0  0
    2.9109   -6.5069   37.8100 C   0  0  0  0  0  0  0  0  0  0  0  0
    3.2486   -7.7593   38.3579 C   0  0  0  0  0  0  0  0  0  0  0  0
    4.5397   -8.3105   38.0748 N   0  0  0  0  0  0  0  0  0  0  0  0
    5.5341   -7.6075   37.3884 C   0  0  0  0  0  0  0  0  0  0  0  0
    5.2457   -8.1495   36.1339 C   0  0  0  0  0  0  0  0  0  0  0  0
    4.7051   -7.3010   35.0869 C   0  0  0  0  0  0  0  0  0  0  0  0
    5.3504   -6.4249   34.5239 O   0  0  0  0  0  0  0  0  0  0  0  0
    3.3547   -7.5382   34.8783 O   0  0  0  0  0  0  0  0  0  0  0  0
    2.6441   -6.3588   34.4576 C   0  0  0  0  0  0  0  0  0  0  0  0
    1.1062   -6.4917   34.5794 C   0  0  0  0  0  0  0  0  0  0  0  0
    0.3650   -6.5795   33.2615 C   0  0  0  0  0  0  0  0  0  0  0  0
   -0.5302   -7.5585   33.0358 C   0  0  0  0  0  0  0  0  0  0  0  0
   -0.9899   -7.8486   31.6612 C   0  0  0  0  0  0  0  0  0  0  0  0
   -1.7948   -8.7315   31.4116 O   0  0  0  0  0  0  0  0  0  0  0  0
   -0.4225   -7.0932   30.6788 N   0  0  0  0  0  0  0  0  0  0  0  0
    0.3509   -5.9923   30.9277 C   0  0  0  0  0  0  0  0  0  0  0  0
    0.6919   -5.6598   32.1776 C   0  0  0  0  0  0  0  0  0  0  0  0
    1.3182   -4.4914   32.4739 N   0  0  0  0  0  0  0  0  0  0  0  0
    2.1610   -3.5382   31.5734 C   0  0  0  0  0  0  0  0  0  0  0  0
    2.3779   -3.5764   30.4234 O   0  0  0  0  0  0  0  0  0  0  0  0
    2.6753   -2.3806   32.4355 C   0  0  0  0  0  0  0  0  0  0  0  0
    3.0038   -2.6659   33.8810 C   0  0  0  0  0  0  0  0  0  0  0  0
    4.2332   -3.2072   34.2774 C   0  0  0  0  0  0  0  0  0  0  0  0
    4.5382   -3.3683   35.6434 C   0  0  0  0  0  0  0  0  0  0  0  0
    3.6030   -3.0394   36.6305 C   0  0  0  0  0  0  0  0  0  0  0  0
    2.3879   -2.5516   36.2224 C   0  0  0  0  0  0  0  0  0  0  0  0
    2.1027   -2.3676   34.8919 C   0  0  0  0  0  0  0  0  0  0  0  0
    0.8342   -1.9059   34.7043 O   0  0  0  0  0  0  0  0  0  0  0  0
    0.3875   -1.7476   36.0685 C   0  0  0  0  0  0  0  0  0  0  0  0
    1.3514   -2.2166   37.0331 O   0  0  0  0  0  0  0  0  0  0  0  0
    4.9149   -9.4683   36.3276 N   0  0  0  0  0  0  0  0  0  0  0  0
    4.6558   -9.5950   37.6275 N   0  0  0  0  0  0  0  0  0  0  0  0
    3.3328   -9.3408   40.6860 H   0  0  0  0  0  0  0  0  0  0  0  0
    1.7387  -10.0386   40.4477 H   0  0  0  0  0  0  0  0  0  0  0  0
    3.0584  -10.4904   39.3639 H   0  0  0  0  0  0  0  0  0  0  0  0
    0.1735   -8.6046   39.5053 H   0  0  0  0  0  0  0  0  0  0  0  0
   -0.4211   -6.4691   38.4209 H   0  0  0  0  0  0  0  0  0  0  0  0
    1.3450   -5.0790   37.4030 H   0  0  0  0  0  0  0  0  0  0  0  0
    3.6504   -5.8620   37.3494 H   0  0  0  0  0  0  0  0  0  0  0  0
    5.7719   -6.5965   37.6841 H   0  0  0  0  0  0  0  0  0  0  0  0
    2.9681   -6.1003   33.4507 H   0  0  0  0  0  0  0  0  0  0  0  0
    2.9386   -5.5446   35.1189 H   0  0  0  0  0  0  0  0  0  0  0  0
    0.8668   -7.3576   35.2084 H   0  0  0  0  0  0  0  0  0  0  0  0
    0.7165   -5.6035   35.0926 H   0  0  0  0  0  0  0  0  0  0  0  0
   -0.8591   -8.2505   33.7990 H   0  0  0  0  0  0  0  0  0  0  0  0
   -0.7013   -7.2914   29.7255 H   0  0  0  0  0  0  0  0  0  0  0  0
    0.5948   -5.3811   30.0625 H   0  0  0  0  0  0  0  0  0  0  0  0
    1.2731   -4.1180   33.4119 H   0  0  0  0  0  0  0  0  0  0  0  0
    1.9359   -1.5732   32.3664 H   0  0  0  0  0  0  0  0  0  0  0  0
    3.5851   -1.9960   31.9557 H   0  0  0  0  0  0  0  0  0  0  0  0
    4.9875   -3.4709   33.5363 H   0  0  0  0  0  0  0  0  0  0  0  0
    5.5147   -3.7576   35.9271 H   0  0  0  0  0  0  0  0  0  0  0  0
    3.8315   -3.1603   37.6840 H   0  0  0  0  0  0  0  0  0  0  0  0
    0.1865   -0.6862   36.2542 H   0  0  0  0  0  0  0  0  0  0  0  0
   -0.5419   -2.3132   36.1989 H   0  0  0  0  0  0  0  0  0  0  0  0
  1  2  1  0
  2  3  2  0
  3  4  1  0
  4  5  2  0
  5  6  1  0
  6  7  2  0
  7  8  1  0
  8  9  1  0
  9 10  2  0
 10 11  1  0
 11 12  2  0
 11 13  1  0
 13 14  1  0
 14 15  1  0
 15 16  1  0
 16 17  2  0
 17 18  1  0
 18 19  2  0
 18 20  1  0
 20 21  1  0
 21 22  2  0
 22 23  1  0
 23 24  1  0
 24 25  2  0
 24 26  1  0
 26 27  1  0
 27 28  2  0
 28 29  1  0
 29 30  2  0
 30 31  1  0
 31 32  2  0
 32 33  1  0
 33 34  1  0
 34 35  1  0
 10 36  1  0
 36 37  2  0
  7  2  1  0
 37  8  1  0
 22 16  1  0
 32 27  1  0
 35 31  1  0
  1 38  1  0
  1 39  1  0
  1 40  1  0
  3 41  1  0
  4 42  1  0
  5 43  1  0
  6 44  1  0
  9 45  1  0
 14 46  1  0
 14 47  1  0
 15 48  1  0
 15 49  1  0
 17 50  1  0
 20 51  1  0
 21 52  1  0
 23 53  1  0
 26 54  1  0
 26 55  1  0
 28 56  1  0
 29 57  1  0
 30 58  1  0
 34 59  1  0
 34 60  1  0
M  END
>  <Energy>  (912) 
163.15929965034232

>  <compound_id>  (912) 
2204

>  <target_id>  (912) 
1

>  <reference_id>  (912) 
148

>  <inspiration_ids>  (912) 
[41, 148]

>  <energy_score>  (912) 
-8.607047845124328

>  <distance_score>  (912) 
2.8296569076581344

>  <path>  (912) 
/opt/xchem-fragalysis-2/maxwin/BulkDock/SCRATCH/505732/C2204-P148/C2204-P148.minimised.mol

>  <scratch_subdir>  (912) 
/opt/xchem-fragalysis-2/maxwin/BulkDock/SCRATCH/505732/C2204-P148

>  <fragmenstein_runtime>  (912) 
7.89409875869751

>  <fragmenstein_outcome>  (912) 
too moved

>  <fragmenstein_mode>  (912) 
expansion

>  <fragmenstein_error>  (912) 


$$$$
C2205-P41
     RDKit          3D

 65 69  0  0  0  0  0  0  0  0999 V2000
   -6.3067   -4.0948   30.1532 C   0  0  0  0  0  0  0  0  0  0  0  0
   -6.2617   -5.5942   30.6445 C   0  0  0  0  0  0  0  0  0  0  0  0
   -6.6843   -6.7923   31.3455 C   0  0  0  0  0  0  0  0  0  0  0  0
   -5.7863   -8.4968   31.0229 C   0  0  0  0  0  0  0  0  0  0  0  0
   -4.7462   -8.7910   31.6861 C   0  0  0  0  0  0  0  0  0  0  0  0
   -5.0277   -7.6683   32.1770 C   0  0  0  0  0  0  0  0  0  0  0  0
   -5.8433   -5.8620   31.7707 C   0  0  0  0  0  0  0  0  0  0  0  0
   -5.4597   -4.2087   32.5514 N   0  0  0  0  0  0  0  0  0  0  0  0
   -4.5789   -3.1253   32.2109 C   0  0  0  0  0  0  0  0  0  0  0  0
   -4.6119   -2.2256   33.2583 C   0  0  0  0  0  0  0  0  0  0  0  0
   -3.5587   -1.2886   33.6277 C   0  0  0  0  0  0  0  0  0  0  0  0
   -3.6272   -0.4796   34.5451 O   0  0  0  0  0  0  0  0  0  0  0  0
   -2.4387   -1.5016   32.8700 O   0  0  0  0  0  0  0  0  0  0  0  0
   -1.1687   -1.0692   33.3863 C   0  0  0  0  0  0  0  0  0  0  0  0
   -0.4780   -2.1927   34.1954 C   0  0  0  0  0  0  0  0  0  0  0  0
   -0.0150   -3.4484   33.4608 C   0  0  0  0  0  0  0  0  0  0  0  0
   -0.6251   -3.8372   32.2644 C   0  0  0  0  0  0  0  0  0  0  0  0
   -0.3668   -4.9728   31.5757 N   0  0  0  0  0  0  0  0  0  0  0  0
    0.5973   -5.7563   32.0771 C   0  0  0  0  0  0  0  0  0  0  0  0
    1.2940   -5.4704   33.2409 C   0  0  0  0  0  0  0  0  0  0  0  0
    0.9787   -4.3195   33.9823 C   0  0  0  0  0  0  0  0  0  0  0  0
    1.7188   -3.9855   35.2747 C   0  0  0  0  0  0  0  0  0  0  0  0
    2.4526   -5.1002   36.0554 C   0  0  0  0  0  0  0  0  0  0  0  0
    3.7194   -5.5632   35.3701 C   0  0  0  0  0  0  0  0  0  0  0  0
    4.3731   -4.8643   34.6036 O   0  0  0  0  0  0  0  0  0  0  0  0
    4.1589   -6.8250   35.6484 N   0  0  0  0  0  0  0  0  0  0  0  0
    3.4951   -7.7474   36.5378 C   0  0  0  0  0  0  0  0  0  0  0  0
    3.9365   -7.5605   37.9920 C   0  0  0  0  0  0  0  0  0  0  0  0
    3.2155   -8.5410   38.9099 C   0  0  0  0  0  0  0  0  0  0  0  0
    1.7014   -8.4430   38.7565 C   0  0  0  0  0  0  0  0  0  0  0  0
    1.2574   -8.6109   37.3036 C   0  0  0  0  0  0  0  0  0  0  0  0
    1.9805   -7.6557   36.3512 C   0  0  0  0  0  0  0  0  0  0  0  0
    1.5156   -6.2083   36.4994 C   0  0  0  0  0  0  0  0  0  0  0  0
    0.4023   -5.9433   36.9569 O   0  0  0  0  0  0  0  0  0  0  0  0
   -5.6561   -2.5530   34.0543 N   0  0  0  0  0  0  0  0  0  0  0  0
   -6.1054   -3.7387   33.6656 N   0  0  0  0  0  0  0  0  0  0  0  0
   -7.1630   -3.5009   30.4740 H   0  0  0  0  0  0  0  0  0  0  0  0
   -6.3119   -4.0982   29.0523 H   0  0  0  0  0  0  0  0  0  0  0  0
   -5.4700   -3.4849   30.3518 H   0  0  0  0  0  0  0  0  0  0  0  0
   -7.4123   -6.9446   32.2291 H   0  0  0  0  0  0  0  0  0  0  0  0
   -6.3625   -9.2144   30.2991 H   0  0  0  0  0  0  0  0  0  0  0  0
   -3.7664   -9.0578   31.3280 H   0  0  0  0  0  0  0  0  0  0  0  0
   -3.7278   -7.5921   32.0127 H   0  0  0  0  0  0  0  0  0  0  0  0
   -3.8571   -3.1715   31.4179 H   0  0  0  0  0  0  0  0  0  0  0  0
   -1.2890   -0.1752   34.0085 H   0  0  0  0  0  0  0  0  0  0  0  0
   -0.5494   -0.7851   32.5285 H   0  0  0  0  0  0  0  0  0  0  0  0
   -1.1580   -2.5220   34.9908 H   0  0  0  0  0  0  0  0  0  0  0  0
    0.3978   -1.7308   34.6656 H   0  0  0  0  0  0  0  0  0  0  0  0
   -1.3787   -3.2270   31.7814 H   0  0  0  0  0  0  0  0  0  0  0  0
    0.8143   -6.6496   31.4995 H   0  0  0  0  0  0  0  0  0  0  0  0
    2.0729   -6.1591   33.5322 H   0  0  0  0  0  0  0  0  0  0  0  0
    2.4328   -3.1861   35.0364 H   0  0  0  0  0  0  0  0  0  0  0  0
    0.9863   -3.5556   35.9705 H   0  0  0  0  0  0  0  0  0  0  0  0
    2.8111   -4.6460   36.9913 H   0  0  0  0  0  0  0  0  0  0  0  0
    5.0683   -7.0567   35.2583 H   0  0  0  0  0  0  0  0  0  0  0  0
    3.8197   -8.7452   36.2133 H   0  0  0  0  0  0  0  0  0  0  0  0
    5.0200   -7.7101   38.0748 H   0  0  0  0  0  0  0  0  0  0  0  0
    3.7433   -6.5348   38.3289 H   0  0  0  0  0  0  0  0  0  0  0  0
    3.5394   -9.5634   38.6787 H   0  0  0  0  0  0  0  0  0  0  0  0
    3.4948   -8.3463   39.9514 H   0  0  0  0  0  0  0  0  0  0  0  0
    1.2212   -9.2104   39.3745 H   0  0  0  0  0  0  0  0  0  0  0  0
    1.3593   -7.4735   39.1380 H   0  0  0  0  0  0  0  0  0  0  0  0
    0.1717   -8.4781   37.2367 H   0  0  0  0  0  0  0  0  0  0  0  0
    1.4615   -9.6425   36.9904 H   0  0  0  0  0  0  0  0  0  0  0  0
    1.7246   -7.9376   35.3213 H   0  0  0  0  0  0  0  0  0  0  0  0
  1  2  1  0
  2  3  2  0
  3  4  1  0
  4  5  2  0
  5  6  1  0
  6  7  2  0
  7  8  1  0
  8  9  1  0
  9 10  2  0
 10 11  1  0
 11 12  2  0
 11 13  1  0
 13 14  1  0
 14 15  1  0
 15 16  1  0
 16 17  2  0
 17 18  1  0
 18 19  2  0
 19 20  1  0
 20 21  2  0
 21 22  1  0
 22 23  1  0
 23 24  1  0
 24 25  2  0
 24 26  1  0
 26 27  1  0
 27 28  1  0
 28 29  1  0
 29 30  1  0
 30 31  1  0
 31 32  1  0
 32 33  1  0
 33 34  2  0
 10 35  1  0
 35 36  2  0
  7  2  1  0
 36  8  1  0
 21 16  1  0
 33 23  1  0
 32 27  1  0
  1 37  1  0
  1 38  1  0
  1 39  1  0
  3 40  1  0
  4 41  1  0
  5 42  1  0
  6 43  1  0
  9 44  1  0
 14 45  1  0
 14 46  1  0
 15 47  1  0
 15 48  1  0
 17 49  1  0
 19 50  1  0
 20 51  1  0
 22 52  1  0
 22 53  1  0
 23 54  1  0
 26 55  1  0
 27 56  1  0
 28 57  1  0
 28 58  1  0
 29 59  1  0
 29 60  1  0
 30 61  1  0
 30 62  1  0
 31 63  1  0
 31 64  1  0
 32 65  1  0
M  END
>  <Energy>  (913) 
709.09772652359402

>  <compound_id>  (913) 
2205

>  <target_id>  (913) 
1

>  <reference_id>  (913) 
41

>  <inspiration_ids>  (913) 
[41, 149]

>  <energy_score>  (913) 
525.9642168597486

>  <distance_score>  (913) 
2.609266623134281

>  <path>  (913) 
/opt/xchem-fragalysis-2/maxwin/BulkDock/SCRATCH/505732/C2205-P41/C2205-P41.minimised.mol

>  <scratch_subdir>  (913) 
/opt/xchem-fragalysis-2/maxwin/BulkDock/SCRATCH/505732/C2205-P41

>  <fragmenstein_runtime>  (913) 
10.116233825683594

>  <fragmenstein_outcome>  (913) 
too moved

>  <fragmenstein_mode>  (913) 
expansion

>  <fragmenstein_error>  (913) 


$$$$
C2205-P149
     RDKit          3D

 65 69  0  0  0  0  0  0  0  0999 V2000
   -6.2096   -4.0157   30.0547 C   0  0  0  0  0  0  0  0  0  0  0  0
   -6.1040   -5.5884   30.5970 C   0  0  0  0  0  0  0  0  0  0  0  0
   -6.5822   -6.7721   31.2538 C   0  0  0  0  0  0  0  0  0  0  0  0
   -5.7118   -8.5118   31.0033 C   0  0  0  0  0  0  0  0  0  0  0  0
   -4.6861   -8.7779   31.7462 C   0  0  0  0  0  0  0  0  0  0  0  0
   -5.0466   -7.6836   32.2117 C   0  0  0  0  0  0  0  0  0  0  0  0
   -5.8281   -5.9031   31.7572 C   0  0  0  0  0  0  0  0  0  0  0  0
   -5.3068   -4.1649   32.4587 N   0  0  0  0  0  0  0  0  0  0  0  0
   -4.4594   -3.0933   31.9562 C   0  0  0  0  0  0  0  0  0  0  0  0
   -4.2272   -2.2341   33.0106 C   0  0  0  0  0  0  0  0  0  0  0  0
   -3.0010   -1.4693   33.1876 C   0  0  0  0  0  0  0  0  0  0  0  0
   -2.4279   -0.8948   32.2698 O   0  0  0  0  0  0  0  0  0  0  0  0
   -2.5199   -1.5521   34.4647 O   0  0  0  0  0  0  0  0  0  0  0  0
   -1.1302   -1.2206   34.6707 C   0  0  0  0  0  0  0  0  0  0  0  0
   -0.3635   -2.4154   35.2899 C   0  0  0  0  0  0  0  0  0  0  0  0
    0.2153   -3.4000   34.2844 C   0  0  0  0  0  0  0  0  0  0  0  0
   -0.6857   -4.0794   33.4593 C   0  0  0  0  0  0  0  0  0  0  0  0
   -0.3751   -4.9460   32.4678 N   0  0  0  0  0  0  0  0  0  0  0  0
    0.9346   -5.1476   32.2711 C   0  0  0  0  0  0  0  0  0  0  0  0
    1.9236   -4.5716   33.0524 C   0  0  0  0  0  0  0  0  0  0  0  0
    1.5789   -3.7097   34.1107 C   0  0  0  0  0  0  0  0  0  0  0  0
    2.7066   -3.1691   34.9739 C   0  0  0  0  0  0  0  0  0  0  0  0
    3.3167   -4.1533   35.9986 C   0  0  0  0  0  0  0  0  0  0  0  0
    4.1595   -5.2343   35.3527 C   0  0  0  0  0  0  0  0  0  0  0  0
    4.7771   -5.0843   34.3018 O   0  0  0  0  0  0  0  0  0  0  0  0
    4.3387   -6.3998   36.0413 N   0  0  0  0  0  0  0  0  0  0  0  0
    3.3216   -6.9449   36.9104 C   0  0  0  0  0  0  0  0  0  0  0  0
    3.9011   -8.1111   37.7258 C   0  0  0  0  0  0  0  0  0  0  0  0
    3.0739   -8.4494   38.9660 C   0  0  0  0  0  0  0  0  0  0  0  0
    1.6291   -7.9943   38.8248 C   0  0  0  0  0  0  0  0  0  0  0  0
    1.5268   -6.4825   38.6030 C   0  0  0  0  0  0  0  0  0  0  0  0
    2.7184   -5.8913   37.8305 C   0  0  0  0  0  0  0  0  0  0  0  0
    2.3285   -4.6552   37.0325 C   0  0  0  0  0  0  0  0  0  0  0  0
    1.3381   -3.9906   37.3436 O   0  0  0  0  0  0  0  0  0  0  0  0
   -5.1867   -2.4467   33.9323 N   0  0  0  0  0  0  0  0  0  0  0  0
   -5.8486   -3.5397   33.5729 N   0  0  0  0  0  0  0  0  0  0  0  0
   -6.5432   -3.2583   30.7645 H   0  0  0  0  0  0  0  0  0  0  0  0
   -5.3169   -3.7183   29.5401 H   0  0  0  0  0  0  0  0  0  0  0  0
   -6.8989   -3.8264   29.2105 H   0  0  0  0  0  0  0  0  0  0  0  0
   -7.3578   -6.9579   32.1230 H   0  0  0  0  0  0  0  0  0  0  0  0
   -6.1476   -9.1903   30.1772 H   0  0  0  0  0  0  0  0  0  0  0  0
   -3.6503   -9.0305   31.4965 H   0  0  0  0  0  0  0  0  0  0  0  0
   -3.7191   -7.5655   32.1641 H   0  0  0  0  0  0  0  0  0  0  0  0
   -3.8711   -3.1404   31.0738 H   0  0  0  0  0  0  0  0  0  0  0  0
   -1.1295   -0.3952   35.3910 H   0  0  0  0  0  0  0  0  0  0  0  0
   -0.6334   -0.8657   33.7609 H   0  0  0  0  0  0  0  0  0  0  0  0
   -1.0229   -2.9714   35.9686 H   0  0  0  0  0  0  0  0  0  0  0  0
    0.4338   -1.9955   35.9056 H   0  0  0  0  0  0  0  0  0  0  0  0
   -1.7464   -3.9255   33.5851 H   0  0  0  0  0  0  0  0  0  0  0  0
    1.1854   -5.8034   31.4445 H   0  0  0  0  0  0  0  0  0  0  0  0
    2.9602   -4.7794   32.8090 H   0  0  0  0  0  0  0  0  0  0  0  0
    3.4964   -2.8124   34.2976 H   0  0  0  0  0  0  0  0  0  0  0  0
    2.3849   -2.2648   35.4987 H   0  0  0  0  0  0  0  0  0  0  0  0
    4.0455   -3.5722   36.5847 H   0  0  0  0  0  0  0  0  0  0  0  0
    4.9082   -7.0572   35.5171 H   0  0  0  0  0  0  0  0  0  0  0  0
    2.5389   -7.3262   36.2392 H   0  0  0  0  0  0  0  0  0  0  0  0
    3.9772   -8.9915   37.0767 H   0  0  0  0  0  0  0  0  0  0  0  0
    4.9292   -7.8912   38.0424 H   0  0  0  0  0  0  0  0  0  0  0  0
    3.1182   -9.5273   39.1578 H   0  0  0  0  0  0  0  0  0  0  0  0
    3.5185   -7.9598   39.8417 H   0  0  0  0  0  0  0  0  0  0  0  0
    1.1660   -8.5132   37.9771 H   0  0  0  0  0  0  0  0  0  0  0  0
    1.0530   -8.2755   39.7136 H   0  0  0  0  0  0  0  0  0  0  0  0
    1.4624   -5.9779   39.5757 H   0  0  0  0  0  0  0  0  0  0  0  0
    0.5756   -6.2758   38.0966 H   0  0  0  0  0  0  0  0  0  0  0  0
    3.4796   -5.5552   38.5488 H   0  0  0  0  0  0  0  0  0  0  0  0
  1  2  1  0
  2  3  2  0
  3  4  1  0
  4  5  2  0
  5  6  1  0
  6  7  2  0
  7  8  1  0
  8  9  1  0
  9 10  2  0
 10 11  1  0
 11 12  2  0
 11 13  1  0
 13 14  1  0
 14 15  1  0
 15 16  1  0
 16 17  2  0
 17 18  1  0
 18 19  2  0
 19 20  1  0
 20 21  2  0
 21 22  1  0
 22 23  1  0
 23 24  1  0
 24 25  2  0
 24 26  1  0
 26 27  1  0
 27 28  1  0
 28 29  1  0
 29 30  1  0
 30 31  1  0
 31 32  1  0
 32 33  1  0
 33 34  2  0
 10 35  1  0
 35 36  2  0
  7  2  1  0
 36  8  1  0
 21 16  1  0
 33 23  1  0
 32 27  1  0
  1 37  1  0
  1 38  1  0
  1 39  1  0
  3 40  1  0
  4 41  1  0
  5 42  1  0
  6 43  1  0
  9 44  1  0
 14 45  1  0
 14 46  1  0
 15 47  1  0
 15 48  1  0
 17 49  1  0
 19 50  1  0
 20 51  1  0
 22 52  1  0
 22 53  1  0
 23 54  1  0
 26 55  1  0
 27 56  1  0
 28 57  1  0
 28 58  1  0
 29 59  1  0
 29 60  1  0
 30 61  1  0
 30 62  1  0
 31 63  1  0
 31 64  1  0
 32 65  1  0
M  END
>  <Energy>  (914) 
759.20281086857585

>  <compound_id>  (914) 
2205

>  <target_id>  (914) 
1

>  <reference_id>  (914) 
149

>  <inspiration_ids>  (914) 
[41, 149]

>  <energy_score>  (914) 
576.0693012047212

>  <distance_score>  (914) 
2.6533707661238264

>  <path>  (914) 
/opt/xchem-fragalysis-2/maxwin/BulkDock/SCRATCH/505732/C2205-P149/C2205-P149.minimised.mol

>  <scratch_subdir>  (914) 
/opt/xchem-fragalysis-2/maxwin/BulkDock/SCRATCH/505732/C2205-P149

>  <fragmenstein_runtime>  (914) 
10.924877882003784

>  <fragmenstein_outcome>  (914) 
too moved

>  <fragmenstein_mode>  (914) 
expansion

>  <fragmenstein_error>  (914) 


$$$$
C2206-P41
     RDKit          3D

 63 67  0  0  0  0  0  0  0  0999 V2000
   -0.2353   -2.8621   34.1358 C   0  0  0  0  0  0  0  0  0  0  0  0
    1.1370   -3.4207   34.4009 C   0  0  0  0  0  0  0  0  0  0  0  0
    2.1337   -2.5760   34.9131 C   0  0  0  0  0  0  0  0  0  0  0  0
    3.4119   -3.0536   35.1796 C   0  0  0  0  0  0  0  0  0  0  0  0
    3.7038   -4.3882   34.9397 C   0  0  0  0  0  0  0  0  0  0  0  0
    2.7248   -5.2463   34.4311 C   0  0  0  0  0  0  0  0  0  0  0  0
    1.4370   -4.7743   34.1381 C   0  0  0  0  0  0  0  0  0  0  0  0
    0.4606   -5.6062   33.5310 N   0  0  0  0  0  0  0  0  0  0  0  0
    0.3644   -5.6599   32.1500 C   0  0  0  0  0  0  0  0  0  0  0  0
   -0.1915   -6.8202   31.7958 C   0  0  0  0  0  0  0  0  0  0  0  0
   -0.2181   -7.3107   30.4335 C   0  0  0  0  0  0  0  0  0  0  0  0
    0.7490   -7.4308   29.7026 O   0  0  0  0  0  0  0  0  0  0  0  0
   -1.4699   -7.5651   30.0297 O   0  0  0  0  0  0  0  0  0  0  0  0
   -0.5233   -7.5518   32.9215 N   0  0  0  0  0  0  0  0  0  0  0  0
    0.2697   -6.9760   33.9667 N   0  0  0  0  0  0  0  0  0  0  0  0
   -0.4794   -7.0072   35.2276 C   0  0  0  0  0  0  0  0  0  0  0  0
    0.4675   -7.0475   36.3445 N   0  0  0  0  0  0  0  0  0  0  0  0
   -0.2310   -6.6981   37.5861 C   0  0  0  0  0  0  0  0  0  0  0  0
    0.1422   -7.4819   38.8511 C   0  0  0  0  0  0  0  0  0  0  0  0
    0.1964   -8.9458   38.6450 N   0  0  0  0  0  0  0  0  0  0  0  0
    0.3239   -9.9891   39.9501 S   0  0  0  0  0  0  0  0  0  0  0  0
   -0.1518   -9.2989   41.1252 O   0  0  0  0  0  0  0  0  0  0  0  0
   -0.2216  -11.2611   39.5380 O   0  0  0  0  0  0  0  0  0  0  0  0
    1.9775  -10.2874   40.1254 N   0  0  0  0  0  0  0  0  0  0  0  0
    2.8986   -9.2240   39.9297 C   0  0  0  0  0  0  0  0  0  0  0  0
    3.7781   -9.3072   38.8326 C   0  0  0  0  0  0  0  0  0  0  0  0
    4.3556   -8.1528   38.3054 C   0  0  0  0  0  0  0  0  0  0  0  0
    3.9922   -6.9522   38.8770 C   0  0  0  0  0  0  0  0  0  0  0  0
    3.2614   -6.9084   40.0547 C   0  0  0  0  0  0  0  0  0  0  0  0
    2.7569   -8.0431   40.6490 C   0  0  0  0  0  0  0  0  0  0  0  0
    2.9351   -5.6286   40.4403 O   0  0  0  0  0  0  0  0  0  0  0  0
    3.1393   -4.8644   39.2240 C   0  0  0  0  0  0  0  0  0  0  0  0
    4.2156   -5.5715   38.4031 C   0  0  0  0  0  0  0  0  0  0  0  0
    0.4828   -9.4177   37.2845 C   0  0  0  0  0  0  0  0  0  0  0  0
    1.1779   -8.3280   36.4493 C   0  0  0  0  0  0  0  0  0  0  0  0
   -0.3344   -1.8424   34.5228 H   0  0  0  0  0  0  0  0  0  0  0  0
   -0.9959   -3.4713   34.6339 H   0  0  0  0  0  0  0  0  0  0  0  0
   -0.4344   -2.8324   33.0602 H   0  0  0  0  0  0  0  0  0  0  0  0
    1.9132   -1.5282   35.1094 H   0  0  0  0  0  0  0  0  0  0  0  0
    4.1743   -2.3850   35.5701 H   0  0  0  0  0  0  0  0  0  0  0  0
    4.7042   -4.7665   35.1335 H   0  0  0  0  0  0  0  0  0  0  0  0
    2.9743   -6.2852   34.2425 H   0  0  0  0  0  0  0  0  0  0  0  0
    0.7989   -4.8890   31.5309 H   0  0  0  0  0  0  0  0  0  0  0  0
   -1.4091   -7.5752   29.0472 H   0  0  0  0  0  0  0  0  0  0  0  0
   -0.4966   -8.5611   32.8080 H   0  0  0  0  0  0  0  0  0  0  0  0
   -1.1401   -6.1305   35.2917 H   0  0  0  0  0  0  0  0  0  0  0  0
   -1.1364   -7.8854   35.2751 H   0  0  0  0  0  0  0  0  0  0  0  0
   -1.3016   -6.7977   37.4434 H   0  0  0  0  0  0  0  0  0  0  0  0
   -0.0695   -5.6297   37.7762 H   0  0  0  0  0  0  0  0  0  0  0  0
   -0.5682   -7.2338   39.6448 H   0  0  0  0  0  0  0  0  0  0  0  0
    1.1012   -7.1054   39.1468 H   0  0  0  0  0  0  0  0  0  0  0  0
    2.2106  -11.1931   39.7229 H   0  0  0  0  0  0  0  0  0  0  0  0
    3.9293  -10.2547   38.3225 H   0  0  0  0  0  0  0  0  0  0  0  0
    4.9694   -8.1929   37.4123 H   0  0  0  0  0  0  0  0  0  0  0  0
    2.1049   -7.9681   41.5126 H   0  0  0  0  0  0  0  0  0  0  0  0
    3.4365   -3.8435   39.4842 H   0  0  0  0  0  0  0  0  0  0  0  0
    2.1846   -4.8146   38.6854 H   0  0  0  0  0  0  0  0  0  0  0  0
    5.2190   -5.2327   38.6790 H   0  0  0  0  0  0  0  0  0  0  0  0
    4.0545   -5.4529   37.3354 H   0  0  0  0  0  0  0  0  0  0  0  0
   -0.4584   -9.7173   36.8180 H   0  0  0  0  0  0  0  0  0  0  0  0
    1.1302  -10.2965   37.3174 H   0  0  0  0  0  0  0  0  0  0  0  0
    1.4524   -8.7205   35.4696 H   0  0  0  0  0  0  0  0  0  0  0  0
    2.1361   -8.0979   36.9136 H   0  0  0  0  0  0  0  0  0  0  0  0
  1  2  1  0
  2  3  2  0
  3  4  1  0
  4  5  2  0
  5  6  1  0
  6  7  2  0
  7  8  1  0
  8  9  1  0
  9 10  2  0
 10 11  1  0
 11 12  2  0
 11 13  1  0
 10 14  1  0
 14 15  1  0
 15 16  1  0
 16 17  1  0
 17 18  1  0
 18 19  1  0
 19 20  1  0
 20 21  1  0
 21 22  2  0
 21 23  2  0
 21 24  1  0
 24 25  1  0
 25 26  2  0
 26 27  1  0
 27 28  2  0
 28 29  1  0
 29 30  2  0
 29 31  1  0
 31 32  1  0
 32 33  1  0
 20 34  1  0
 34 35  1  0
  7  2  1  0
 15  8  1  0
 35 17  1  0
 30 25  1  0
 33 28  1  0
  1 36  1  0
  1 37  1  0
  1 38  1  0
  3 39  1  0
  4 40  1  0
  5 41  1  0
  6 42  1  0
  9 43  1  0
 13 44  1  0
 14 45  1  0
 16 46  1  0
 16 47  1  0
 18 48  1  0
 18 49  1  0
 19 50  1  0
 19 51  1  0
 24 52  1  0
 26 53  1  0
 27 54  1  0
 30 55  1  0
 32 56  1  0
 32 57  1  0
 33 58  1  0
 33 59  1  0
 34 60  1  0
 34 61  1  0
 35 62  1  0
 35 63  1  0
M  END
>  <Energy>  (915) 
28.425058459474059

>  <compound_id>  (915) 
2206

>  <target_id>  (915) 
1

>  <reference_id>  (915) 
41

>  <inspiration_ids>  (915) 
[41, 152]

>  <energy_score>  (915) 
-101.55907911770063

>  <distance_score>  (915) 
2.0763002967384123

>  <path>  (915) 
/opt/xchem-fragalysis-2/maxwin/BulkDock/SCRATCH/505732/C2206-P41/C2206-P41.minimised.mol

>  <scratch_subdir>  (915) 
/opt/xchem-fragalysis-2/maxwin/BulkDock/SCRATCH/505732/C2206-P41

>  <fragmenstein_runtime>  (915) 
6.546170711517334

>  <fragmenstein_outcome>  (915) 
too moved

>  <fragmenstein_mode>  (915) 
expansion

>  <fragmenstein_error>  (915) 


$$$$
C2206-P152
     RDKit          3D

 63 67  0  0  0  0  0  0  0  0999 V2000
   -0.3694   -2.5924   34.2432 C   0  0  0  0  0  0  0  0  0  0  0  0
    1.0200   -3.1660   34.3143 C   0  0  0  0  0  0  0  0  0  0  0  0
    2.1050   -2.3135   34.5734 C   0  0  0  0  0  0  0  0  0  0  0  0
    3.4037   -2.8041   34.6517 C   0  0  0  0  0  0  0  0  0  0  0  0
    3.6273   -4.1621   34.4879 C   0  0  0  0  0  0  0  0  0  0  0  0
    2.5579   -5.0293   34.2542 C   0  0  0  0  0  0  0  0  0  0  0  0
    1.2463   -4.5453   34.1441 C   0  0  0  0  0  0  0  0  0  0  0  0
    0.1653   -5.4065   33.8170 N   0  0  0  0  0  0  0  0  0  0  0  0
   -0.0585   -5.7410   32.4821 C   0  0  0  0  0  0  0  0  0  0  0  0
   -0.6247   -6.9502   32.4061 C   0  0  0  0  0  0  0  0  0  0  0  0
   -0.6517   -7.7611   31.1808 C   0  0  0  0  0  0  0  0  0  0  0  0
   -0.2177   -7.4551   30.0853 O   0  0  0  0  0  0  0  0  0  0  0  0
   -1.1506   -8.9853   31.4278 O   0  0  0  0  0  0  0  0  0  0  0  0
   -0.8503   -7.4282   33.6984 N   0  0  0  0  0  0  0  0  0  0  0  0
    0.0335   -6.6566   34.5343 N   0  0  0  0  0  0  0  0  0  0  0  0
   -0.5386   -6.4431   35.8862 C   0  0  0  0  0  0  0  0  0  0  0  0
    0.4883   -6.6777   36.9196 N   0  0  0  0  0  0  0  0  0  0  0  0
    0.0161   -6.3977   38.2982 C   0  0  0  0  0  0  0  0  0  0  0  0
    0.1917   -7.4764   39.4320 C   0  0  0  0  0  0  0  0  0  0  0  0
    1.3815   -8.3210   39.2892 N   0  0  0  0  0  0  0  0  0  0  0  0
    1.8310   -9.4243   40.4823 S   0  0  0  0  0  0  0  0  0  0  0  0
    0.6852   -9.6911   41.3228 O   0  0  0  0  0  0  0  0  0  0  0  0
    2.6869  -10.4455   39.9201 O   0  0  0  0  0  0  0  0  0  0  0  0
    2.8402   -8.5106   41.4998 N   0  0  0  0  0  0  0  0  0  0  0  0
    3.5842   -7.5146   40.8228 C   0  0  0  0  0  0  0  0  0  0  0  0
    4.6450   -7.8790   39.9745 C   0  0  0  0  0  0  0  0  0  0  0  0
    5.0465   -7.0083   38.9623 C   0  0  0  0  0  0  0  0  0  0  0  0
    4.3285   -5.8325   38.8107 C   0  0  0  0  0  0  0  0  0  0  0  0
    3.3418   -5.4608   39.7080 C   0  0  0  0  0  0  0  0  0  0  0  0
    2.9879   -6.2577   40.7604 C   0  0  0  0  0  0  0  0  0  0  0  0
    2.7138   -4.2845   39.3928 O   0  0  0  0  0  0  0  0  0  0  0  0
    3.0712   -4.0891   38.0054 C   0  0  0  0  0  0  0  0  0  0  0  0
    4.3879   -4.8213   37.7383 C   0  0  0  0  0  0  0  0  0  0  0  0
    2.0299   -8.3022   37.9763 C   0  0  0  0  0  0  0  0  0  0  0  0
    1.0163   -8.0357   36.8594 C   0  0  0  0  0  0  0  0  0  0  0  0
   -0.3578   -1.5014   34.3394 H   0  0  0  0  0  0  0  0  0  0  0  0
   -0.9820   -2.9898   35.0583 H   0  0  0  0  0  0  0  0  0  0  0  0
   -0.8364   -2.8285   33.2819 H   0  0  0  0  0  0  0  0  0  0  0  0
    1.9383   -1.2461   34.7089 H   0  0  0  0  0  0  0  0  0  0  0  0
    4.2332   -2.1266   34.8361 H   0  0  0  0  0  0  0  0  0  0  0  0
    4.6409   -4.5525   34.5319 H   0  0  0  0  0  0  0  0  0  0  0  0
    2.7481   -6.0905   34.1443 H   0  0  0  0  0  0  0  0  0  0  0  0
    0.3425   -5.1253   31.6899 H   0  0  0  0  0  0  0  0  0  0  0  0
   -0.7598   -9.5785   30.7416 H   0  0  0  0  0  0  0  0  0  0  0  0
   -0.8393   -8.4448   33.7779 H   0  0  0  0  0  0  0  0  0  0  0  0
   -0.9547   -5.4329   35.9866 H   0  0  0  0  0  0  0  0  0  0  0  0
   -1.3650   -7.1427   36.0420 H   0  0  0  0  0  0  0  0  0  0  0  0
   -1.0310   -6.0787   38.3003 H   0  0  0  0  0  0  0  0  0  0  0  0
    0.5603   -5.5076   38.6247 H   0  0  0  0  0  0  0  0  0  0  0  0
    0.1916   -6.9700   40.4020 H   0  0  0  0  0  0  0  0  0  0  0  0
   -0.6509   -8.1626   39.4240 H   0  0  0  0  0  0  0  0  0  0  0  0
    2.2682   -8.1813   42.2753 H   0  0  0  0  0  0  0  0  0  0  0  0
    5.0795   -8.8735   40.0450 H   0  0  0  0  0  0  0  0  0  0  0  0
    5.8266   -7.2920   38.2643 H   0  0  0  0  0  0  0  0  0  0  0  0
    2.1663   -5.9713   41.4047 H   0  0  0  0  0  0  0  0  0  0  0  0
    3.1633   -3.0162   37.8082 H   0  0  0  0  0  0  0  0  0  0  0  0
    2.2605   -4.4776   37.3810 H   0  0  0  0  0  0  0  0  0  0  0  0
    5.2479   -4.1603   37.8844 H   0  0  0  0  0  0  0  0  0  0  0  0
    4.4260   -5.2768   36.7505 H   0  0  0  0  0  0  0  0  0  0  0  0
    2.5883   -9.2164   37.7986 H   0  0  0  0  0  0  0  0  0  0  0  0
    2.7550   -7.5034   37.9160 H   0  0  0  0  0  0  0  0  0  0  0  0
    0.1623   -8.7072   36.9616 H   0  0  0  0  0  0  0  0  0  0  0  0
    1.5194   -8.2051   35.9018 H   0  0  0  0  0  0  0  0  0  0  0  0
  1  2  1  0
  2  3  2  0
  3  4  1  0
  4  5  2  0
  5  6  1  0
  6  7  2  0
  7  8  1  0
  8  9  1  0
  9 10  2  0
 10 11  1  0
 11 12  2  0
 11 13  1  0
 10 14  1  0
 14 15  1  0
 15 16  1  0
 16 17  1  0
 17 18  1  0
 18 19  1  0
 19 20  1  0
 20 21  1  0
 21 22  2  0
 21 23  2  0
 21 24  1  0
 24 25  1  0
 25 26  2  0
 26 27  1  0
 27 28  2  0
 28 29  1  0
 29 30  2  0
 29 31  1  0
 31 32  1  0
 32 33  1  0
 20 34  1  0
 34 35  1  0
  7  2  1  0
 15  8  1  0
 35 17  1  0
 30 25  1  0
 33 28  1  0
  1 36  1  0
  1 37  1  0
  1 38  1  0
  3 39  1  0
  4 40  1  0
  5 41  1  0
  6 42  1  0
  9 43  1  0
 13 44  1  0
 14 45  1  0
 16 46  1  0
 16 47  1  0
 18 48  1  0
 18 49  1  0
 19 50  1  0
 19 51  1  0
 24 52  1  0
 26 53  1  0
 27 54  1  0
 30 55  1  0
 32 56  1  0
 32 57  1  0
 33 58  1  0
 33 59  1  0
 34 60  1  0
 34 61  1  0
 35 62  1  0
 35 63  1  0
M  END
>  <Energy>  (916) 
27.0632614763874

>  <compound_id>  (916) 
2206

>  <target_id>  (916) 
1

>  <reference_id>  (916) 
152

>  <inspiration_ids>  (916) 
[41, 152]

>  <energy_score>  (916) 
-102.92087610078372

>  <distance_score>  (916) 
2.304875507708744

>  <path>  (916) 
/opt/xchem-fragalysis-2/maxwin/BulkDock/SCRATCH/505732/C2206-P152/C2206-P152.minimised.mol

>  <scratch_subdir>  (916) 
/opt/xchem-fragalysis-2/maxwin/BulkDock/SCRATCH/505732/C2206-P152

>  <fragmenstein_runtime>  (916) 
6.759507179260254

>  <fragmenstein_outcome>  (916) 
too moved

>  <fragmenstein_mode>  (916) 
expansion

>  <fragmenstein_error>  (916) 


$$$$
C2207-P41
     RDKit          3D

 56 59  0  0  0  0  0  0  0  0999 V2000
   -1.1270   -7.8520   33.1638 C   0  0  0  0  0  0  0  0  0  0  0  0
   -0.4525   -6.6506   32.5752 C   0  0  0  0  0  0  0  0  0  0  0  0
   -0.0512   -6.7309   31.2312 C   0  0  0  0  0  0  0  0  0  0  0  0
    0.5547   -5.6470   30.6048 C   0  0  0  0  0  0  0  0  0  0  0  0
    0.7349   -4.4570   31.2925 C   0  0  0  0  0  0  0  0  0  0  0  0
    0.3521   -4.3598   32.6285 C   0  0  0  0  0  0  0  0  0  0  0  0
   -0.1972   -5.4654   33.2990 C   0  0  0  0  0  0  0  0  0  0  0  0
   -0.4105   -5.3709   34.7051 N   0  0  0  0  0  0  0  0  0  0  0  0
   -0.4333   -4.2466   35.4961 C   0  0  0  0  0  0  0  0  0  0  0  0
   -0.4074   -4.7136   36.7948 C   0  0  0  0  0  0  0  0  0  0  0  0
   -0.3546   -3.9115   38.0089 C   0  0  0  0  0  0  0  0  0  0  0  0
   -0.6757   -2.7256   38.0094 O   0  0  0  0  0  0  0  0  0  0  0  0
    0.0339   -4.5150   39.1753 O   0  0  0  0  0  0  0  0  0  0  0  0
    0.9498   -5.6317   39.2035 C   0  0  0  0  0  0  0  0  0  0  0  0
    0.2172   -6.8723   39.6976 C   0  0  0  0  0  0  0  0  0  0  0  0
    1.1250   -8.0466   40.0562 C   0  0  0  0  0  0  0  0  0  0  0  0
    1.4766   -9.0025   38.9065 C   0  0  0  0  0  0  0  0  0  0  0  0
    2.2839   -8.4861   37.7081 C   0  0  0  0  0  0  0  0  0  0  0  0
    1.9777   -8.7300   36.6095 O   0  0  0  0  0  0  0  0  0  0  0  0
    3.4990   -7.7082   38.2590 N   0  0  0  0  0  0  0  0  0  0  0  0
    4.5370   -6.9891   37.5716 C   0  0  0  0  0  0  0  0  0  0  0  0
    4.0161   -5.6682   37.0494 C   0  0  0  0  0  0  0  0  0  0  0  0
    3.4792   -5.6029   35.7580 C   0  0  0  0  0  0  0  0  0  0  0  0
    2.9904   -4.3911   35.2689 C   0  0  0  0  0  0  0  0  0  0  0  0
    2.9977   -3.2973   36.1413 C   0  0  0  0  0  0  0  0  0  0  0  0
    2.5765   -1.9458   36.0757 C   0  0  0  0  0  0  0  0  0  0  0  0
    2.8394   -1.3641   37.2981 C   0  0  0  0  0  0  0  0  0  0  0  0
    3.4138   -2.3160   38.1005 N   0  0  0  0  0  0  0  0  0  0  0  0
    3.5229   -3.4938   37.4132 C   0  0  0  0  0  0  0  0  0  0  0  0
    4.0448   -4.6247   37.9197 N   0  0  0  0  0  0  0  0  0  0  0  0
   -0.4692   -6.0774   36.7611 N   0  0  0  0  0  0  0  0  0  0  0  0
   -0.4905   -6.4639   35.4985 N   0  0  0  0  0  0  0  0  0  0  0  0
   -0.4151   -8.3757   33.7983 H   0  0  0  0  0  0  0  0  0  0  0  0
   -1.4761   -8.5382   32.3851 H   0  0  0  0  0  0  0  0  0  0  0  0
   -2.0024   -7.5730   33.7513 H   0  0  0  0  0  0  0  0  0  0  0  0
   -0.1961   -7.6504   30.6665 H   0  0  0  0  0  0  0  0  0  0  0  0
    0.8847   -5.7133   29.5748 H   0  0  0  0  0  0  0  0  0  0  0  0
    1.1832   -3.6021   30.7906 H   0  0  0  0  0  0  0  0  0  0  0  0
    0.5403   -3.4151   33.1324 H   0  0  0  0  0  0  0  0  0  0  0  0
   -0.4405   -3.2418   35.1042 H   0  0  0  0  0  0  0  0  0  0  0  0
    1.4327   -5.7893   38.2402 H   0  0  0  0  0  0  0  0  0  0  0  0
    1.7370   -5.3588   39.9147 H   0  0  0  0  0  0  0  0  0  0  0  0
   -0.3452   -6.5885   40.5974 H   0  0  0  0  0  0  0  0  0  0  0  0
   -0.5412   -7.1844   38.9774 H   0  0  0  0  0  0  0  0  0  0  0  0
    2.0188   -7.6869   40.5756 H   0  0  0  0  0  0  0  0  0  0  0  0
    0.5874   -8.6520   40.7991 H   0  0  0  0  0  0  0  0  0  0  0  0
    2.0378   -9.8529   39.3144 H   0  0  0  0  0  0  0  0  0  0  0  0
    0.5413   -9.4148   38.5053 H   0  0  0  0  0  0  0  0  0  0  0  0
    3.5003   -7.7550   39.2677 H   0  0  0  0  0  0  0  0  0  0  0  0
    5.3603   -6.8232   38.2734 H   0  0  0  0  0  0  0  0  0  0  0  0
    4.9012   -7.6106   36.7472 H   0  0  0  0  0  0  0  0  0  0  0  0
    3.4509   -6.4885   35.1297 H   0  0  0  0  0  0  0  0  0  0  0  0
    2.6206   -4.3101   34.2559 H   0  0  0  0  0  0  0  0  0  0  0  0
    2.1172   -1.4462   35.2329 H   0  0  0  0  0  0  0  0  0  0  0  0
    2.6598   -0.3630   37.6676 H   0  0  0  0  0  0  0  0  0  0  0  0
    3.7104   -2.1932   39.0574 H   0  0  0  0  0  0  0  0  0  0  0  0
  1  2  1  0
  2  3  2  0
  3  4  1  0
  4  5  2  0
  5  6  1  0
  6  7  2  0
  7  8  1  0
  8  9  1  0
  9 10  2  0
 10 11  1  0
 11 12  2  0
 11 13  1  0
 13 14  1  0
 14 15  1  0
 15 16  1  0
 16 17  1  0
 17 18  1  0
 18 19  2  0
 18 20  1  0
 20 21  1  0
 21 22  1  0
 22 23  2  0
 23 24  1  0
 24 25  2  0
 25 26  1  0
 26 27  2  0
 27 28  1  0
 28 29  1  0
 29 30  2  0
 10 31  1  0
 31 32  2  0
  7  2  1  0
 32  8  1  0
 30 22  1  0
 29 25  1  0
  1 33  1  0
  1 34  1  0
  1 35  1  0
  3 36  1  0
  4 37  1  0
  5 38  1  0
  6 39  1  0
  9 40  1  0
 14 41  1  0
 14 42  1  0
 15 43  1  0
 15 44  1  0
 16 45  1  0
 16 46  1  0
 17 47  1  0
 17 48  1  0
 20 49  1  0
 21 50  1  0
 21 51  1  0
 23 52  1  0
 24 53  1  0
 26 54  1  0
 27 55  1  0
 28 56  1  0
M  END
>  <Energy>  (917) 
95.010246666361667

>  <compound_id>  (917) 
2207

>  <target_id>  (917) 
1

>  <reference_id>  (917) 
41

>  <inspiration_ids>  (917) 
[41, 153]

>  <energy_score>  (917) 
-42.961073608320476

>  <distance_score>  (917) 
1.4257069394909871

>  <path>  (917) 
/opt/xchem-fragalysis-2/maxwin/BulkDock/SCRATCH/505732/C2207-P41/C2207-P41.minimised.mol

>  <scratch_subdir>  (917) 
/opt/xchem-fragalysis-2/maxwin/BulkDock/SCRATCH/505732/C2207-P41

>  <fragmenstein_runtime>  (917) 
28.839898824691772

>  <fragmenstein_outcome>  (917) 
too moved

>  <fragmenstein_mode>  (917) 
expansion

>  <fragmenstein_error>  (917) 


$$$$
C2207-P153
     RDKit          3D

 56 59  0  0  0  0  0  0  0  0999 V2000
   -1.4220   -7.7876   34.1951 C   0  0  0  0  0  0  0  0  0  0  0  0
   -0.7378   -6.9613   33.1540 C   0  0  0  0  0  0  0  0  0  0  0  0
   -0.6590   -7.5043   31.8616 C   0  0  0  0  0  0  0  0  0  0  0  0
   -0.0859   -6.7957   30.8115 C   0  0  0  0  0  0  0  0  0  0  0  0
    0.4091   -5.5184   31.0193 C   0  0  0  0  0  0  0  0  0  0  0  0
    0.3358   -4.9594   32.2918 C   0  0  0  0  0  0  0  0  0  0  0  0
   -0.2128   -5.6796   33.3762 C   0  0  0  0  0  0  0  0  0  0  0  0
   -0.2158   -5.0397   34.6452 N   0  0  0  0  0  0  0  0  0  0  0  0
   -0.2375   -5.5486   35.9184 C   0  0  0  0  0  0  0  0  0  0  0  0
   -0.0780   -4.4557   36.7481 C   0  0  0  0  0  0  0  0  0  0  0  0
    0.1311   -4.4099   38.1789 C   0  0  0  0  0  0  0  0  0  0  0  0
    0.3436   -3.3796   38.8096 O   0  0  0  0  0  0  0  0  0  0  0  0
    0.1097   -5.6532   38.7367 O   0  0  0  0  0  0  0  0  0  0  0  0
    0.5532   -5.6754   40.0881 C   0  0  0  0  0  0  0  0  0  0  0  0
    0.2487   -7.0369   40.6817 C   0  0  0  0  0  0  0  0  0  0  0  0
    0.7201   -8.2499   39.8837 C   0  0  0  0  0  0  0  0  0  0  0  0
    2.2163   -8.2731   39.5751 C   0  0  0  0  0  0  0  0  0  0  0  0
    2.5563   -7.8520   38.1387 C   0  0  0  0  0  0  0  0  0  0  0  0
    1.8095   -7.9135   37.2464 O   0  0  0  0  0  0  0  0  0  0  0  0
    4.0368   -7.4061   38.1773 N   0  0  0  0  0  0  0  0  0  0  0  0
    4.8721   -6.8558   37.1463 C   0  0  0  0  0  0  0  0  0  0  0  0
    4.3516   -5.4981   36.7342 C   0  0  0  0  0  0  0  0  0  0  0  0
    3.6294   -5.3725   35.5410 C   0  0  0  0  0  0  0  0  0  0  0  0
    3.1188   -4.1294   35.1716 C   0  0  0  0  0  0  0  0  0  0  0  0
    3.2913   -3.0722   36.0724 C   0  0  0  0  0  0  0  0  0  0  0  0
    2.8884   -1.7145   36.1261 C   0  0  0  0  0  0  0  0  0  0  0  0
    3.3665   -1.1789   37.3037 C   0  0  0  0  0  0  0  0  0  0  0  0
    4.0381   -2.1714   37.9694 N   0  0  0  0  0  0  0  0  0  0  0  0
    4.0051   -3.3260   37.2366 C   0  0  0  0  0  0  0  0  0  0  0  0
    4.5684   -4.4862   37.6163 N   0  0  0  0  0  0  0  0  0  0  0  0
   -0.0483   -3.3354   35.9819 N   0  0  0  0  0  0  0  0  0  0  0  0
   -0.1019   -3.6991   34.7143 N   0  0  0  0  0  0  0  0  0  0  0  0
   -0.6840   -8.2905   34.8225 H   0  0  0  0  0  0  0  0  0  0  0  0
   -2.0671   -8.5381   33.7313 H   0  0  0  0  0  0  0  0  0  0  0  0
   -2.0774   -7.1821   34.8241 H   0  0  0  0  0  0  0  0  0  0  0  0
   -1.0510   -8.5005   31.6681 H   0  0  0  0  0  0  0  0  0  0  0  0
   -0.0380   -7.2542   29.8343 H   0  0  0  0  0  0  0  0  0  0  0  0
    0.8349   -4.9492   30.1967 H   0  0  0  0  0  0  0  0  0  0  0  0
    0.7238   -3.9494   32.4256 H   0  0  0  0  0  0  0  0  0  0  0  0
   -0.2363   -6.6008   36.1502 H   0  0  0  0  0  0  0  0  0  0  0  0
    1.6306   -5.4768   40.1157 H   0  0  0  0  0  0  0  0  0  0  0  0
    0.0371   -4.9117   40.6827 H   0  0  0  0  0  0  0  0  0  0  0  0
    0.6712   -7.0811   41.6931 H   0  0  0  0  0  0  0  0  0  0  0  0
   -0.8386   -7.1286   40.7986 H   0  0  0  0  0  0  0  0  0  0  0  0
    0.4883   -9.1275   40.4982 H   0  0  0  0  0  0  0  0  0  0  0  0
    0.1217   -8.3453   38.9725 H   0  0  0  0  0  0  0  0  0  0  0  0
    2.7568   -7.6643   40.3071 H   0  0  0  0  0  0  0  0  0  0  0  0
    2.5823   -9.3030   39.6736 H   0  0  0  0  0  0  0  0  0  0  0  0
    4.3623   -7.3971   39.1350 H   0  0  0  0  0  0  0  0  0  0  0  0
    5.8925   -6.7729   37.5329 H   0  0  0  0  0  0  0  0  0  0  0  0
    4.8711   -7.5500   36.2999 H   0  0  0  0  0  0  0  0  0  0  0  0
    3.4677   -6.2315   34.8991 H   0  0  0  0  0  0  0  0  0  0  0  0
    2.5837   -3.9872   34.2419 H   0  0  0  0  0  0  0  0  0  0  0  0
    2.2904   -1.1896   35.3921 H   0  0  0  0  0  0  0  0  0  0  0  0
    3.2669   -0.1906   37.7314 H   0  0  0  0  0  0  0  0  0  0  0  0
    4.4793   -2.0928   38.8728 H   0  0  0  0  0  0  0  0  0  0  0  0
  1  2  1  0
  2  3  2  0
  3  4  1  0
  4  5  2  0
  5  6  1  0
  6  7  2  0
  7  8  1  0
  8  9  1  0
  9 10  2  0
 10 11  1  0
 11 12  2  0
 11 13  1  0
 13 14  1  0
 14 15  1  0
 15 16  1  0
 16 17  1  0
 17 18  1  0
 18 19  2  0
 18 20  1  0
 20 21  1  0
 21 22  1  0
 22 23  2  0
 23 24  1  0
 24 25  2  0
 25 26  1  0
 26 27  2  0
 27 28  1  0
 28 29  1  0
 29 30  2  0
 10 31  1  0
 31 32  2  0
  7  2  1  0
 32  8  1  0
 30 22  1  0
 29 25  1  0
  1 33  1  0
  1 34  1  0
  1 35  1  0
  3 36  1  0
  4 37  1  0
  5 38  1  0
  6 39  1  0
  9 40  1  0
 14 41  1  0
 14 42  1  0
 15 43  1  0
 15 44  1  0
 16 45  1  0
 16 46  1  0
 17 47  1  0
 17 48  1  0
 20 49  1  0
 21 50  1  0
 21 51  1  0
 23 52  1  0
 24 53  1  0
 26 54  1  0
 27 55  1  0
 28 56  1  0
M  END
>  <Energy>  (918) 
86.133181455711338

>  <compound_id>  (918) 
2207

>  <target_id>  (918) 
1

>  <reference_id>  (918) 
153

>  <inspiration_ids>  (918) 
[41, 153]

>  <energy_score>  (918) 
-51.83813881897095

>  <distance_score>  (918) 
1.7061228988481867

>  <path>  (918) 
/opt/xchem-fragalysis-2/maxwin/BulkDock/SCRATCH/505732/C2207-P153/C2207-P153.minimised.mol

>  <scratch_subdir>  (918) 
/opt/xchem-fragalysis-2/maxwin/BulkDock/SCRATCH/505732/C2207-P153

>  <fragmenstein_runtime>  (918) 
23.575275182724

>  <fragmenstein_outcome>  (918) 
too moved

>  <fragmenstein_mode>  (918) 
expansion

>  <fragmenstein_error>  (918) 


$$$$
C2208-P41
     RDKit          3D

 58 62  0  0  0  0  0  0  0  0999 V2000
   -0.2112   -3.6897   35.7996 C   0  0  0  0  0  0  0  0  0  0  0  0
    1.2143   -3.2403   35.6634 C   0  0  0  0  0  0  0  0  0  0  0  0
    2.0869   -3.6344   36.7028 C   0  0  0  0  0  0  0  0  0  0  0  0
    3.4126   -3.2113   36.7499 C   0  0  0  0  0  0  0  0  0  0  0  0
    3.8981   -2.3807   35.7544 C   0  0  0  0  0  0  0  0  0  0  0  0
    3.0643   -1.9976   34.7038 C   0  0  0  0  0  0  0  0  0  0  0  0
    1.7244   -2.4344   34.6230 C   0  0  0  0  0  0  0  0  0  0  0  0
    0.9940   -2.0362   33.4564 N   0  0  0  0  0  0  0  0  0  0  0  0
   -0.1583   -2.5545   32.9183 C   0  0  0  0  0  0  0  0  0  0  0  0
   -0.3676   -1.9601   31.6856 C   0  0  0  0  0  0  0  0  0  0  0  0
   -1.4152   -2.3601   30.7760 C   0  0  0  0  0  0  0  0  0  0  0  0
   -2.3078   -3.1434   31.0652 O   0  0  0  0  0  0  0  0  0  0  0  0
   -1.2889   -1.8784   29.5249 O   0  0  0  0  0  0  0  0  0  0  0  0
    0.6677   -1.0001   31.5878 C   0  0  0  0  0  0  0  0  0  0  0  0
    0.9420    0.0237   30.5331 C   0  0  0  0  0  0  0  0  0  0  0  0
    2.1011   -0.2526   29.5689 C   0  0  0  0  0  0  0  0  0  0  0  0
    3.4919   -0.7020   30.0864 C   0  0  0  0  0  0  0  0  0  0  0  0
    3.3140   -2.0667   29.3802 C   0  0  0  0  0  0  0  0  0  0  0  0
    4.4296   -2.4448   28.5115 N   0  0  0  0  0  0  0  0  0  0  0  0
    4.9688   -1.8105   27.3344 C   0  0  0  0  0  0  0  0  0  0  0  0
    4.5923   -0.8533   26.7197 O   0  0  0  0  0  0  0  0  0  0  0  0
    6.2431   -2.5280   26.8913 C   0  0  0  0  0  0  0  0  0  0  0  0
    5.9104   -4.2570   26.6351 Cl  0  0  0  0  0  0  0  0  0  0  0  0
    3.0423   -3.2634   30.3530 C   0  0  0  0  0  0  0  0  0  0  0  0
    3.9181   -3.7428   31.2100 N   0  0  0  0  0  0  0  0  0  0  0  0
    3.3030   -4.7605   31.9083 N   0  0  0  0  0  0  0  0  0  0  0  0
    2.0852   -4.9068   31.4311 C   0  0  0  0  0  0  0  0  0  0  0  0
    1.0770   -5.8059   31.8983 C   0  0  0  0  0  0  0  0  0  0  0  0
   -0.0378   -6.2528   31.2141 C   0  0  0  0  0  0  0  0  0  0  0  0
   -0.8427   -7.1301   31.9960 C   0  0  0  0  0  0  0  0  0  0  0  0
   -0.3379   -7.2993   33.2636 C   0  0  0  0  0  0  0  0  0  0  0  0
    1.1304   -6.4556   33.4825 S   0  0  0  0  0  0  0  0  0  0  0  0
    1.9114   -4.0247   30.4032 N   0  0  0  0  0  0  0  0  0  0  0  0
    2.0653   -1.5009   28.6593 C   0  0  0  0  0  0  0  0  0  0  0  0
    1.4718   -1.0447   32.6553 N   0  0  0  0  0  0  0  0  0  0  0  0
   -0.4264   -4.5423   35.1544 H   0  0  0  0  0  0  0  0  0  0  0  0
   -0.9006   -2.8659   35.5901 H   0  0  0  0  0  0  0  0  0  0  0  0
   -0.4335   -4.0025   36.8268 H   0  0  0  0  0  0  0  0  0  0  0  0
    1.7240   -4.2712   37.5084 H   0  0  0  0  0  0  0  0  0  0  0  0
    4.0592   -3.5243   37.5648 H   0  0  0  0  0  0  0  0  0  0  0  0
    4.9304   -2.0422   35.7757 H   0  0  0  0  0  0  0  0  0  0  0  0
    3.4961   -1.3761   33.9197 H   0  0  0  0  0  0  0  0  0  0  0  0
   -0.7070   -3.3592   33.3770 H   0  0  0  0  0  0  0  0  0  0  0  0
   -2.0262   -2.2555   28.9912 H   0  0  0  0  0  0  0  0  0  0  0  0
    0.0322    0.2102   29.9511 H   0  0  0  0  0  0  0  0  0  0  0  0
    1.1463    0.9761   31.0428 H   0  0  0  0  0  0  0  0  0  0  0  0
    2.2029    0.6553   28.9528 H   0  0  0  0  0  0  0  0  0  0  0  0
    3.6221   -0.7340   31.1714 H   0  0  0  0  0  0  0  0  0  0  0  0
    4.3099   -0.0878   29.6883 H   0  0  0  0  0  0  0  0  0  0  0  0
    5.0602   -3.1888   28.8062 H   0  0  0  0  0  0  0  0  0  0  0  0
    7.0186   -2.4183   27.6545 H   0  0  0  0  0  0  0  0  0  0  0  0
    6.5983   -2.1069   25.9469 H   0  0  0  0  0  0  0  0  0  0  0  0
   -0.2748   -5.9746   30.1960 H   0  0  0  0  0  0  0  0  0  0  0  0
   -1.7570   -7.6033   31.6626 H   0  0  0  0  0  0  0  0  0  0  0  0
   -0.7541   -7.8932   34.0676 H   0  0  0  0  0  0  0  0  0  0  0  0
    1.0740   -3.8983   29.8569 H   0  0  0  0  0  0  0  0  0  0  0  0
    2.2098   -1.2518   27.6025 H   0  0  0  0  0  0  0  0  0  0  0  0
    1.1498   -2.0932   28.7075 H   0  0  0  0  0  0  0  0  0  0  0  0
  1  2  1  0
  2  3  2  0
  3  4  1  0
  4  5  2  0
  5  6  1  0
  6  7  2  0
  7  8  1  0
  8  9  1  0
  9 10  2  0
 10 11  1  0
 11 12  2  0
 11 13  1  0
 10 14  1  0
 14 15  1  0
 15 16  1  0
 16 17  1  0
 17 18  1  0
 18 19  1  0
 19 20  1  0
 20 21  2  0
 20 22  1  0
 22 23  1  0
 18 24  1  0
 24 25  2  0
 25 26  1  0
 26 27  2  0
 27 28  1  0
 28 29  2  0
 29 30  1  0
 30 31  2  0
 31 32  1  0
 27 33  1  0
 18 34  1  0
 14 35  2  0
  7  2  1  0
 35  8  1  0
 34 16  1  0
 33 24  1  0
 32 28  1  0
  1 36  1  0
  1 37  1  0
  1 38  1  0
  3 39  1  0
  4 40  1  0
  5 41  1  0
  6 42  1  0
  9 43  1  0
 13 44  1  0
 15 45  1  0
 15 46  1  0
 16 47  1  0
 17 48  1  0
 17 49  1  0
 19 50  1  0
 22 51  1  0
 22 52  1  0
 29 53  1  0
 30 54  1  0
 31 55  1  0
 33 56  1  0
 34 57  1  0
 34 58  1  0
M  END
>  <Energy>  (919) 
52.336365286523453

>  <compound_id>  (919) 
2208

>  <target_id>  (919) 
1

>  <reference_id>  (919) 
41

>  <inspiration_ids>  (919) 
[41, 156]

>  <energy_score>  (919) 
-58.75343291445071

>  <distance_score>  (919) 
2.46516523396464

>  <path>  (919) 
/opt/xchem-fragalysis-2/maxwin/BulkDock/SCRATCH/505732/C2208-P41/C2208-P41.minimised.mol

>  <scratch_subdir>  (919) 
/opt/xchem-fragalysis-2/maxwin/BulkDock/SCRATCH/505732/C2208-P41

>  <fragmenstein_runtime>  (919) 
12.585466384887695

>  <fragmenstein_outcome>  (919) 
too moved

>  <fragmenstein_mode>  (919) 
expansion

>  <fragmenstein_error>  (919) 


$$$$
C2208-P156
     RDKit          3D

 58 62  0  0  0  0  0  0  0  0999 V2000
   -0.4042   -3.9899   35.9778 C   0  0  0  0  0  0  0  0  0  0  0  0
    1.0105   -3.4903   35.9499 C   0  0  0  0  0  0  0  0  0  0  0  0
    1.8254   -3.8895   37.0336 C   0  0  0  0  0  0  0  0  0  0  0  0
    3.1311   -3.4297   37.1827 C   0  0  0  0  0  0  0  0  0  0  0  0
    3.6544   -2.5526   36.2489 C   0  0  0  0  0  0  0  0  0  0  0  0
    2.8801   -2.1640   35.1557 C   0  0  0  0  0  0  0  0  0  0  0  0
    1.5626   -2.6418   34.9678 C   0  0  0  0  0  0  0  0  0  0  0  0
    0.9025   -2.2375   33.7603 N   0  0  0  0  0  0  0  0  0  0  0  0
   -0.2211   -2.7311   33.1485 C   0  0  0  0  0  0  0  0  0  0  0  0
   -0.3573   -2.1113   31.9167 C   0  0  0  0  0  0  0  0  0  0  0  0
   -1.3766   -2.4600   30.9544 C   0  0  0  0  0  0  0  0  0  0  0  0
   -2.2825   -3.2496   31.1811 O   0  0  0  0  0  0  0  0  0  0  0  0
   -1.2070   -1.9145   29.7352 O   0  0  0  0  0  0  0  0  0  0  0  0
    0.6892   -1.1619   31.8955 C   0  0  0  0  0  0  0  0  0  0  0  0
    0.9842   -0.0550   30.9352 C   0  0  0  0  0  0  0  0  0  0  0  0
    2.2184   -0.1905   30.0396 C   0  0  0  0  0  0  0  0  0  0  0  0
    3.5071   -0.9288   30.4844 C   0  0  0  0  0  0  0  0  0  0  0  0
    3.3420   -1.9347   29.3269 C   0  0  0  0  0  0  0  0  0  0  0  0
    4.4663   -1.9662   28.3989 N   0  0  0  0  0  0  0  0  0  0  0  0
    5.8777   -2.1022   28.6325 C   0  0  0  0  0  0  0  0  0  0  0  0
    6.5008   -2.1456   29.6557 O   0  0  0  0  0  0  0  0  0  0  0  0
    6.6258   -2.2875   27.3099 C   0  0  0  0  0  0  0  0  0  0  0  0
    5.9607   -1.2528   26.0229 Cl  0  0  0  0  0  0  0  0  0  0  0  0
    2.9161   -3.3975   29.6770 C   0  0  0  0  0  0  0  0  0  0  0  0
    2.8140   -4.3488   28.7698 N   0  0  0  0  0  0  0  0  0  0  0  0
    2.1691   -5.4102   29.3506 N   0  0  0  0  0  0  0  0  0  0  0  0
    1.8979   -5.0862   30.5974 C   0  0  0  0  0  0  0  0  0  0  0  0
    1.0611   -5.8506   31.4642 C   0  0  0  0  0  0  0  0  0  0  0  0
   -0.0397   -6.5874   31.0711 C   0  0  0  0  0  0  0  0  0  0  0  0
   -0.6891   -7.2280   32.1624 C   0  0  0  0  0  0  0  0  0  0  0  0
   -0.0443   -6.9808   33.3525 C   0  0  0  0  0  0  0  0  0  0  0  0
    1.3410   -5.9986   33.1404 S   0  0  0  0  0  0  0  0  0  0  0  0
    2.4661   -3.8724   30.8782 N   0  0  0  0  0  0  0  0  0  0  0  0
    2.1367   -1.1119   28.8073 C   0  0  0  0  0  0  0  0  0  0  0  0
    1.4851   -1.3043   32.9616 N   0  0  0  0  0  0  0  0  0  0  0  0
   -1.1072   -3.1792   35.7628 H   0  0  0  0  0  0  0  0  0  0  0  0
   -0.5477   -4.8198   35.2854 H   0  0  0  0  0  0  0  0  0  0  0  0
   -0.6782   -4.3566   36.9743 H   0  0  0  0  0  0  0  0  0  0  0  0
    1.4292   -4.5577   37.7977 H   0  0  0  0  0  0  0  0  0  0  0  0
    3.7286   -3.7435   38.0345 H   0  0  0  0  0  0  0  0  0  0  0  0
    4.6670   -2.1729   36.3595 H   0  0  0  0  0  0  0  0  0  0  0  0
    3.3400   -1.4846   34.4380 H   0  0  0  0  0  0  0  0  0  0  0  0
   -0.8244   -3.5194   33.5667 H   0  0  0  0  0  0  0  0  0  0  0  0
   -1.8858   -2.3162   29.1461 H   0  0  0  0  0  0  0  0  0  0  0  0
    0.1068    0.1558   30.3132 H   0  0  0  0  0  0  0  0  0  0  0  0
    1.1134    0.8544   31.5407 H   0  0  0  0  0  0  0  0  0  0  0  0
    2.4664    0.8314   29.7085 H   0  0  0  0  0  0  0  0  0  0  0  0
    3.5271   -1.3568   31.4878 H   0  0  0  0  0  0  0  0  0  0  0  0
    4.3951   -0.2872   30.4096 H   0  0  0  0  0  0  0  0  0  0  0  0
    4.3029   -1.8832   27.3984 H   0  0  0  0  0  0  0  0  0  0  0  0
    6.5519   -3.3322   26.9961 H   0  0  0  0  0  0  0  0  0  0  0  0
    7.6761   -2.0143   27.4430 H   0  0  0  0  0  0  0  0  0  0  0  0
   -0.3715   -6.6430   30.0410 H   0  0  0  0  0  0  0  0  0  0  0  0
   -1.5811   -7.8382   32.0858 H   0  0  0  0  0  0  0  0  0  0  0  0
   -0.3170   -7.3391   34.3368 H   0  0  0  0  0  0  0  0  0  0  0  0
    2.3888   -3.3527   31.7411 H   0  0  0  0  0  0  0  0  0  0  0  0
    2.3115   -0.5832   27.8621 H   0  0  0  0  0  0  0  0  0  0  0  0
    1.1983   -1.6647   28.6996 H   0  0  0  0  0  0  0  0  0  0  0  0
  1  2  1  0
  2  3  2  0
  3  4  1  0
  4  5  2  0
  5  6  1  0
  6  7  2  0
  7  8  1  0
  8  9  1  0
  9 10  2  0
 10 11  1  0
 11 12  2  0
 11 13  1  0
 10 14  1  0
 14 15  1  0
 15 16  1  0
 16 17  1  0
 17 18  1  0
 18 19  1  0
 19 20  1  0
 20 21  2  0
 20 22  1  0
 22 23  1  0
 18 24  1  0
 24 25  2  0
 25 26  1  0
 26 27  2  0
 27 28  1  0
 28 29  2  0
 29 30  1  0
 30 31  2  0
 31 32  1  0
 27 33  1  0
 18 34  1  0
 14 35  2  0
  7  2  1  0
 35  8  1  0
 34 16  1  0
 33 24  1  0
 32 28  1  0
  1 36  1  0
  1 37  1  0
  1 38  1  0
  3 39  1  0
  4 40  1  0
  5 41  1  0
  6 42  1  0
  9 43  1  0
 13 44  1  0
 15 45  1  0
 15 46  1  0
 16 47  1  0
 17 48  1  0
 17 49  1  0
 19 50  1  0
 22 51  1  0
 22 52  1  0
 29 53  1  0
 30 54  1  0
 31 55  1  0
 33 56  1  0
 34 57  1  0
 34 58  1  0
M  END
>  <Energy>  (920) 
48.96297802269229

>  <compound_id>  (920) 
2208

>  <target_id>  (920) 
1

>  <reference_id>  (920) 
156

>  <inspiration_ids>  (920) 
[41, 156]

>  <energy_score>  (920) 
-62.12682017828317

>  <distance_score>  (920) 
2.4233630892370486

>  <path>  (920) 
/opt/xchem-fragalysis-2/maxwin/BulkDock/SCRATCH/505732/C2208-P156/C2208-P156.minimised.mol

>  <scratch_subdir>  (920) 
/opt/xchem-fragalysis-2/maxwin/BulkDock/SCRATCH/505732/C2208-P156

>  <fragmenstein_runtime>  (920) 
11.949042320251465

>  <fragmenstein_outcome>  (920) 
too moved

>  <fragmenstein_mode>  (920) 
expansion

>  <fragmenstein_error>  (920) 


$$$$
C2209-P41
     RDKit          3D

 61 64  0  0  0  0  0  0  0  0999 V2000
   -0.5777    6.3032   33.3700 C   0  0  0  0  0  0  0  0  0  0  0  0
   -0.6230    4.9390   33.9273 C   0  0  0  0  0  0  0  0  0  0  0  0
    0.3209    3.9666   34.1435 C   0  0  0  0  0  0  0  0  0  0  0  0
   -0.4077    2.8858   34.6991 C   0  0  0  0  0  0  0  0  0  0  0  0
    0.1163    1.5647   35.1553 C   0  0  0  0  0  0  0  0  0  0  0  0
    0.6639    0.8020   34.0022 N   0  0  0  0  0  0  0  0  0  0  0  0
    1.9665   -0.1431   34.4493 S   0  0  0  0  0  0  0  0  0  0  0  0
    3.0921    0.7553   34.5370 O   0  0  0  0  0  0  0  0  0  0  0  0
    1.5782   -0.9885   35.5484 O   0  0  0  0  0  0  0  0  0  0  0  0
    2.1428   -1.0877   33.0605 N   0  0  0  0  0  0  0  0  0  0  0  0
    3.4912   -1.7310   33.0032 C   0  0  0  0  0  0  0  0  0  0  0  0
    3.6513   -2.6193   31.7604 C   0  0  0  0  0  0  0  0  0  0  0  0
    2.5899   -3.6406   31.6493 N   0  0  0  0  0  0  0  0  0  0  0  0
    1.2981   -2.9280   31.5507 C   0  0  0  0  0  0  0  0  0  0  0  0
    0.1324   -3.9080   31.3187 C   0  0  0  0  0  0  0  0  0  0  0  0
    0.3126   -4.8813   30.1395 C   0  0  0  0  0  0  0  0  0  0  0  0
    0.6430   -6.2298   30.5402 O   0  0  0  0  0  0  0  0  0  0  0  0
   -0.3828   -6.9363   31.1202 C   0  0  0  0  0  0  0  0  0  0  0  0
   -1.3033   -7.4415   30.4921 O   0  0  0  0  0  0  0  0  0  0  0  0
   -0.2429   -6.9535   32.5629 C   0  0  0  0  0  0  0  0  0  0  0  0
    0.9028   -6.5964   33.2351 C   0  0  0  0  0  0  0  0  0  0  0  0
    0.4855   -6.2732   34.4969 N   0  0  0  0  0  0  0  0  0  0  0  0
    1.2234   -5.5103   35.4412 C   0  0  0  0  0  0  0  0  0  0  0  0
    2.5578   -5.1739   35.1114 C   0  0  0  0  0  0  0  0  0  0  0  0
    3.3392   -4.3849   35.9415 C   0  0  0  0  0  0  0  0  0  0  0  0
    2.8023   -3.9286   37.1277 C   0  0  0  0  0  0  0  0  0  0  0  0
    1.4932   -4.2574   37.4857 C   0  0  0  0  0  0  0  0  0  0  0  0
    0.6810   -5.0521   36.6566 C   0  0  0  0  0  0  0  0  0  0  0  0
   -0.7180   -5.3351   37.1289 C   0  0  0  0  0  0  0  0  0  0  0  0
   -0.7821   -6.7213   34.6573 N   0  0  0  0  0  0  0  0  0  0  0  0
   -1.2438   -7.1170   33.4730 N   0  0  0  0  0  0  0  0  0  0  0  0
    1.0298   -2.0647   32.8217 C   0  0  0  0  0  0  0  0  0  0  0  0
   -1.7067    3.1919   34.8200 N   0  0  0  0  0  0  0  0  0  0  0  0
   -1.8363    4.4828   34.3374 O   0  0  0  0  0  0  0  0  0  0  0  0
    0.0834    6.9373   33.9686 H   0  0  0  0  0  0  0  0  0  0  0  0
   -1.5700    6.7641   33.3590 H   0  0  0  0  0  0  0  0  0  0  0  0
   -0.1990    6.2849   32.3436 H   0  0  0  0  0  0  0  0  0  0  0  0
    1.3794    4.0277   33.9361 H   0  0  0  0  0  0  0  0  0  0  0  0
    0.8872    1.7582   35.9108 H   0  0  0  0  0  0  0  0  0  0  0  0
   -0.6720    0.9657   35.6246 H   0  0  0  0  0  0  0  0  0  0  0  0
    0.9804    1.4181   33.2539 H   0  0  0  0  0  0  0  0  0  0  0  0
    3.6495   -2.3322   33.9043 H   0  0  0  0  0  0  0  0  0  0  0  0
    4.2641   -0.9554   32.9665 H   0  0  0  0  0  0  0  0  0  0  0  0
    4.6190   -3.1309   31.8082 H   0  0  0  0  0  0  0  0  0  0  0  0
    3.6668   -2.0039   30.8523 H   0  0  0  0  0  0  0  0  0  0  0  0
    2.5862   -4.1644   32.5209 H   0  0  0  0  0  0  0  0  0  0  0  0
    1.3391   -2.2615   30.6777 H   0  0  0  0  0  0  0  0  0  0  0  0
   -0.7442   -3.2877   31.0830 H   0  0  0  0  0  0  0  0  0  0  0  0
   -0.1186   -4.4111   32.2499 H   0  0  0  0  0  0  0  0  0  0  0  0
   -0.6030   -4.9089   29.5466 H   0  0  0  0  0  0  0  0  0  0  0  0
    1.1035   -4.5410   29.4627 H   0  0  0  0  0  0  0  0  0  0  0  0
    1.8787   -6.3740   32.8401 H   0  0  0  0  0  0  0  0  0  0  0  0
    3.0572   -5.5406   34.2221 H   0  0  0  0  0  0  0  0  0  0  0  0
    4.3646   -4.1400   35.6797 H   0  0  0  0  0  0  0  0  0  0  0  0
    3.3951   -3.3021   37.7910 H   0  0  0  0  0  0  0  0  0  0  0  0
    1.1035   -3.8702   38.4267 H   0  0  0  0  0  0  0  0  0  0  0  0
   -0.8660   -6.4121   37.2487 H   0  0  0  0  0  0  0  0  0  0  0  0
   -0.9154   -4.8797   38.1058 H   0  0  0  0  0  0  0  0  0  0  0  0
   -1.4505   -4.9178   36.4320 H   0  0  0  0  0  0  0  0  0  0  0  0
    0.9202   -2.7203   33.6936 H   0  0  0  0  0  0  0  0  0  0  0  0
    0.0937   -1.5130   32.6818 H   0  0  0  0  0  0  0  0  0  0  0  0
  1  2  1  0
  2  3  2  0
  3  4  1  0
  4  5  1  0
  5  6  1  0
  6  7  1  0
  7  8  2  0
  7  9  2  0
  7 10  1  0
 10 11  1  0
 11 12  1  0
 12 13  1  0
 13 14  1  0
 14 15  1  0
 15 16  1  0
 16 17  1  0
 17 18  1  0
 18 19  2  0
 18 20  1  0
 20 21  2  0
 21 22  1  0
 22 23  1  0
 23 24  2  0
 24 25  1  0
 25 26  2  0
 26 27  1  0
 27 28  2  0
 28 29  1  0
 22 30  1  0
 30 31  2  0
 14 32  1  0
  4 33  2  0
 33 34  1  0
 34  2  1  0
 32 10  1  0
 31 20  1  0
 28 23  1  0
  1 35  1  0
  1 36  1  0
  1 37  1  0
  3 38  1  0
  5 39  1  0
  5 40  1  0
  6 41  1  0
 11 42  1  0
 11 43  1  0
 12 44  1  0
 12 45  1  0
 13 46  1  0
 14 47  1  0
 15 48  1  0
 15 49  1  0
 16 50  1  0
 16 51  1  0
 21 52  1  0
 24 53  1  0
 25 54  1  0
 26 55  1  0
 27 56  1  0
 29 57  1  0
 29 58  1  0
 29 59  1  0
 32 60  1  0
 32 61  1  0
M  END
>  <Energy>  (921) 
-46.466363087434473

>  <compound_id>  (921) 
2209

>  <target_id>  (921) 
1

>  <reference_id>  (921) 
41

>  <inspiration_ids>  (921) 
[41, 157]

>  <energy_score>  (921) 
-72.5894412926335

>  <distance_score>  (921) 
1.615057391149474

>  <path>  (921) 
/opt/xchem-fragalysis-2/maxwin/BulkDock/SCRATCH/505732/C2209-P41/C2209-P41.minimised.mol

>  <scratch_subdir>  (921) 
/opt/xchem-fragalysis-2/maxwin/BulkDock/SCRATCH/505732/C2209-P41

>  <fragmenstein_runtime>  (921) 
11.727394819259644

>  <fragmenstein_outcome>  (921) 
too moved

>  <fragmenstein_mode>  (921) 
expansion

>  <fragmenstein_error>  (921) 


$$$$
C2209-P157
     RDKit          3D

 61 64  0  0  0  0  0  0  0  0999 V2000
   -1.0706   -0.5926   28.2076 C   0  0  0  0  0  0  0  0  0  0  0  0
   -0.7983   -0.0641   29.5570 C   0  0  0  0  0  0  0  0  0  0  0  0
    0.2006    0.7062   30.1000 C   0  0  0  0  0  0  0  0  0  0  0  0
   -0.1625    0.8450   31.4624 C   0  0  0  0  0  0  0  0  0  0  0  0
    0.5416    1.5980   32.5366 C   0  0  0  0  0  0  0  0  0  0  0  0
    1.8639    1.0084   32.8154 N   0  0  0  0  0  0  0  0  0  0  0  0
    1.9384   -0.1731   34.0018 S   0  0  0  0  0  0  0  0  0  0  0  0
    3.0876    0.1892   34.7966 O   0  0  0  0  0  0  0  0  0  0  0  0
    0.6389   -0.3819   34.5831 O   0  0  0  0  0  0  0  0  0  0  0  0
    2.3564   -1.4988   33.0756 N   0  0  0  0  0  0  0  0  0  0  0  0
    3.6171   -1.4207   32.3200 C   0  0  0  0  0  0  0  0  0  0  0  0
    4.0749   -2.8330   31.9252 C   0  0  0  0  0  0  0  0  0  0  0  0
    3.0640   -3.7169   31.3150 N   0  0  0  0  0  0  0  0  0  0  0  0
    1.7590   -3.0545   31.1591 C   0  0  0  0  0  0  0  0  0  0  0  0
    0.6685   -4.0387   30.6757 C   0  0  0  0  0  0  0  0  0  0  0  0
    0.9910   -5.5287   30.7582 C   0  0  0  0  0  0  0  0  0  0  0  0
   -0.2094   -6.2807   30.4685 O   0  0  0  0  0  0  0  0  0  0  0  0
   -0.8472   -7.1077   31.3576 C   0  0  0  0  0  0  0  0  0  0  0  0
   -1.5413   -8.0222   30.9211 O   0  0  0  0  0  0  0  0  0  0  0  0
   -0.6820   -6.8666   32.7823 C   0  0  0  0  0  0  0  0  0  0  0  0
   -0.3256   -5.7208   33.4563 C   0  0  0  0  0  0  0  0  0  0  0  0
    0.0673   -6.1653   34.6945 N   0  0  0  0  0  0  0  0  0  0  0  0
    1.0921   -5.6290   35.5151 C   0  0  0  0  0  0  0  0  0  0  0  0
    2.0071   -4.7399   34.9168 C   0  0  0  0  0  0  0  0  0  0  0  0
    3.1221   -4.2767   35.6031 C   0  0  0  0  0  0  0  0  0  0  0  0
    3.3516   -4.7179   36.8944 C   0  0  0  0  0  0  0  0  0  0  0  0
    2.4499   -5.5857   37.5137 C   0  0  0  0  0  0  0  0  0  0  0  0
    1.3020   -6.0468   36.8444 C   0  0  0  0  0  0  0  0  0  0  0  0
    0.3757   -6.9627   37.5968 C   0  0  0  0  0  0  0  0  0  0  0  0
   -0.4937   -7.3721   34.8988 N   0  0  0  0  0  0  0  0  0  0  0  0
   -0.8873   -7.8389   33.7206 N   0  0  0  0  0  0  0  0  0  0  0  0
    1.2690   -2.2307   32.3864 C   0  0  0  0  0  0  0  0  0  0  0  0
   -1.3131    0.2047   31.7196 N   0  0  0  0  0  0  0  0  0  0  0  0
   -1.7051   -0.3660   30.5227 O   0  0  0  0  0  0  0  0  0  0  0  0
   -1.6821    0.1117   27.6363 H   0  0  0  0  0  0  0  0  0  0  0  0
   -0.1314   -0.7504   27.6713 H   0  0  0  0  0  0  0  0  0  0  0  0
   -1.5981   -1.5498   28.2587 H   0  0  0  0  0  0  0  0  0  0  0  0
    1.0610    1.1149   29.5917 H   0  0  0  0  0  0  0  0  0  0  0  0
    0.7086    2.6243   32.1851 H   0  0  0  0  0  0  0  0  0  0  0  0
   -0.0605    1.6992   33.4453 H   0  0  0  0  0  0  0  0  0  0  0  0
    2.5450    1.7216   33.0809 H   0  0  0  0  0  0  0  0  0  0  0  0
    4.4077   -0.9614   32.9221 H   0  0  0  0  0  0  0  0  0  0  0  0
    3.4763   -0.8081   31.4217 H   0  0  0  0  0  0  0  0  0  0  0  0
    4.4518   -3.3475   32.8158 H   0  0  0  0  0  0  0  0  0  0  0  0
    4.9283   -2.7452   31.2422 H   0  0  0  0  0  0  0  0  0  0  0  0
    3.4059   -4.0050   30.3970 H   0  0  0  0  0  0  0  0  0  0  0  0
    1.8855   -2.3210   30.3484 H   0  0  0  0  0  0  0  0  0  0  0  0
    0.4712   -3.8238   29.6148 H   0  0  0  0  0  0  0  0  0  0  0  0
   -0.2917   -3.8257   31.1604 H   0  0  0  0  0  0  0  0  0  0  0  0
    1.4517   -5.8354   31.6991 H   0  0  0  0  0  0  0  0  0  0  0  0
    1.7061   -5.7869   29.9688 H   0  0  0  0  0  0  0  0  0  0  0  0
   -0.1782   -4.7039   33.1583 H   0  0  0  0  0  0  0  0  0  0  0  0
    1.9313   -4.4503   33.8781 H   0  0  0  0  0  0  0  0  0  0  0  0
    3.8173   -3.5899   35.1296 H   0  0  0  0  0  0  0  0  0  0  0  0
    4.2249   -4.3689   37.4408 H   0  0  0  0  0  0  0  0  0  0  0  0
    2.6479   -5.8973   38.5384 H   0  0  0  0  0  0  0  0  0  0  0  0
    0.5091   -7.9983   37.2726 H   0  0  0  0  0  0  0  0  0  0  0  0
    0.5686   -6.9261   38.6749 H   0  0  0  0  0  0  0  0  0  0  0  0
   -0.6635   -6.6497   37.4605 H   0  0  0  0  0  0  0  0  0  0  0  0
    0.7882   -2.8660   33.1276 H   0  0  0  0  0  0  0  0  0  0  0  0
    0.5039   -1.5478   32.0359 H   0  0  0  0  0  0  0  0  0  0  0  0
  1  2  1  0
  2  3  2  0
  3  4  1  0
  4  5  1  0
  5  6  1  0
  6  7  1  0
  7  8  2  0
  7  9  2  0
  7 10  1  0
 10 11  1  0
 11 12  1  0
 12 13  1  0
 13 14  1  0
 14 15  1  0
 15 16  1  0
 16 17  1  0
 17 18  1  0
 18 19  2  0
 18 20  1  0
 20 21  2  0
 21 22  1  0
 22 23  1  0
 23 24  2  0
 24 25  1  0
 25 26  2  0
 26 27  1  0
 27 28  2  0
 28 29  1  0
 22 30  1  0
 30 31  2  0
 14 32  1  0
  4 33  2  0
 33 34  1  0
 34  2  1  0
 32 10  1  0
 31 20  1  0
 28 23  1  0
  1 35  1  0
  1 36  1  0
  1 37  1  0
  3 38  1  0
  5 39  1  0
  5 40  1  0
  6 41  1  0
 11 42  1  0
 11 43  1  0
 12 44  1  0
 12 45  1  0
 13 46  1  0
 14 47  1  0
 15 48  1  0
 15 49  1  0
 16 50  1  0
 16 51  1  0
 21 52  1  0
 24 53  1  0
 25 54  1  0
 26 55  1  0
 27 56  1  0
 29 57  1  0
 29 58  1  0
 29 59  1  0
 32 60  1  0
 32 61  1  0
M  END
>  <Energy>  (922) 
-32.135588413713336

>  <compound_id>  (922) 
2209

>  <target_id>  (922) 
1

>  <reference_id>  (922) 
157

>  <inspiration_ids>  (922) 
[41, 157]

>  <energy_score>  (922) 
-58.258666618914646

>  <distance_score>  (922) 
1.40153273234843

>  <path>  (922) 
/opt/xchem-fragalysis-2/maxwin/BulkDock/SCRATCH/505732/C2209-P157/C2209-P157.minimised.mol

>  <scratch_subdir>  (922) 
/opt/xchem-fragalysis-2/maxwin/BulkDock/SCRATCH/505732/C2209-P157

>  <fragmenstein_runtime>  (922) 
9.315709590911865

>  <fragmenstein_outcome>  (922) 
too moved

>  <fragmenstein_mode>  (922) 
expansion

>  <fragmenstein_error>  (922) 


$$$$
C2210-P41
     RDKit          3D

 45 45  0  0  0  0  0  0  0  0999 V2000
    2.9505   -2.1637   33.4537 C   0  0  0  0  0  0  0  0  0  0  0  0
    2.3488   -3.4452   34.0175 C   0  0  0  0  0  0  0  0  0  0  0  0
    0.8858   -3.6407   33.6449 C   0  0  0  0  0  0  0  0  0  0  0  0
    0.6384   -3.7154   32.1288 C   0  0  0  0  0  0  0  0  0  0  0  0
    1.3780   -4.8652   31.4408 C   0  0  0  0  0  0  0  0  0  0  0  0
    1.4110   -6.1667   32.2474 C   0  0  0  0  0  0  0  0  0  0  0  0
    0.3000   -6.2644   33.1703 N   0  0  0  0  0  0  0  0  0  0  0  0
   -0.1686   -7.6085   33.4282 C   0  0  0  0  0  0  0  0  0  0  0  0
   -1.5965   -7.7389   33.0167 C   0  0  0  0  0  0  0  0  0  0  0  0
   -1.7799   -8.0343   31.5509 C   0  0  0  0  0  0  0  0  0  0  0  0
   -1.0927   -7.1411   30.5474 C   0  0  0  0  0  0  0  0  0  0  0  0
   -1.4535   -9.3734   31.2167 O   0  0  0  0  0  0  0  0  0  0  0  0
    0.2282   -5.1183   34.4119 S   0  0  0  0  0  0  0  0  0  0  0  0
   -1.1777   -4.9662   34.6329 O   0  0  0  0  0  0  0  0  0  0  0  0
    1.1787   -5.7500   35.4250 N   0  0  0  0  0  0  0  0  0  0  0  0
    0.5193   -6.2660   36.6655 C   0  0  0  0  0  0  0  0  0  0  0  0
   -0.1023   -5.0625   37.9194 S   0  0  0  0  0  0  0  0  0  0  0  0
   -0.5402   -6.0735   39.1958 N   0  0  0  0  0  0  0  0  0  0  0  0
    0.9907   -4.2757   38.4505 O   0  0  0  0  0  0  0  0  0  0  0  0
   -1.3435   -4.4431   37.5181 O   0  0  0  0  0  0  0  0  0  0  0  0
    3.0375   -2.2049   32.3642 H   0  0  0  0  0  0  0  0  0  0  0  0
    2.3449   -1.2926   33.7231 H   0  0  0  0  0  0  0  0  0  0  0  0
    3.9568   -2.0134   33.8582 H   0  0  0  0  0  0  0  0  0  0  0  0
    2.4363   -3.3889   35.1102 H   0  0  0  0  0  0  0  0  0  0  0  0
    2.9729   -4.2890   33.7078 H   0  0  0  0  0  0  0  0  0  0  0  0
    0.2974   -2.8112   34.0567 H   0  0  0  0  0  0  0  0  0  0  0  0
    0.9065   -2.7697   31.6445 H   0  0  0  0  0  0  0  0  0  0  0  0
   -0.4393   -3.8378   31.9531 H   0  0  0  0  0  0  0  0  0  0  0  0
    2.4113   -4.5614   31.2316 H   0  0  0  0  0  0  0  0  0  0  0  0
    0.9158   -5.0344   30.4613 H   0  0  0  0  0  0  0  0  0  0  0  0
    1.4231   -6.9742   31.5238 H   0  0  0  0  0  0  0  0  0  0  0  0
    2.3570   -6.2480   32.7939 H   0  0  0  0  0  0  0  0  0  0  0  0
    0.3992   -8.3111   32.8533 H   0  0  0  0  0  0  0  0  0  0  0  0
   -0.0451   -7.8995   34.4732 H   0  0  0  0  0  0  0  0  0  0  0  0
   -2.0898   -6.8067   33.2707 H   0  0  0  0  0  0  0  0  0  0  0  0
   -2.0936   -8.5073   33.6058 H   0  0  0  0  0  0  0  0  0  0  0  0
   -2.8547   -7.9642   31.4164 H   0  0  0  0  0  0  0  0  0  0  0  0
   -1.0967   -6.0986   30.8607 H   0  0  0  0  0  0  0  0  0  0  0  0
   -1.6050   -7.2178   29.5871 H   0  0  0  0  0  0  0  0  0  0  0  0
   -0.0772   -7.4718   30.3284 H   0  0  0  0  0  0  0  0  0  0  0  0
   -0.5226   -9.4521   30.9289 H   0  0  0  0  0  0  0  0  0  0  0  0
    1.2686   -6.8601   37.2013 H   0  0  0  0  0  0  0  0  0  0  0  0
   -0.3268   -6.9196   36.4301 H   0  0  0  0  0  0  0  0  0  0  0  0
    0.0696   -5.8853   39.9957 H   0  0  0  0  0  0  0  0  0  0  0  0
   -1.5253   -5.8888   39.4219 H   0  0  0  0  0  0  0  0  0  0  0  0
  1  2  1  0
  2  3  1  0
  3  4  1  0
  4  5  1  0
  5  6  1  0
  6  7  1  0
  7  8  1  0
  8  9  1  0
  9 10  1  0
 10 11  1  0
 10 12  1  0
  7 13  1  0
 13 14  2  0
 13 15  2  0
 15 16  1  0
 16 17  1  0
 17 18  1  0
 17 19  2  0
 17 20  2  0
 13  3  1  0
  1 21  1  0
  1 22  1  0
  1 23  1  0
  2 24  1  0
  2 25  1  0
  3 26  1  0
  4 27  1  0
  4 28  1  0
  5 29  1  0
  5 30  1  0
  6 31  1  0
  6 32  1  0
  8 33  1  0
  8 34  1  0
  9 35  1  0
  9 36  1  0
 10 37  1  0
 11 38  1  0
 11 39  1  0
 11 40  1  0
 12 41  1  0
 16 42  1  0
 16 43  1  0
 18 44  1  0
 18 45  1  0
M  END
>  <Energy>  (923) 
-50.561650690552348

>  <compound_id>  (923) 
2210

>  <target_id>  (923) 
1

>  <reference_id>  (923) 
41

>  <inspiration_ids>  (923) 
[41, 158]

>  <energy_score>  (923) 
-67.59384885240937

>  <distance_score>  (923) 
2.0974688394324983

>  <path>  (923) 
/opt/xchem-fragalysis-2/maxwin/BulkDock/SCRATCH/505732/C2210-P41/C2210-P41.minimised.mol

>  <scratch_subdir>  (923) 
/opt/xchem-fragalysis-2/maxwin/BulkDock/SCRATCH/505732/C2210-P41

>  <fragmenstein_runtime>  (923) 
6.185650587081909

>  <fragmenstein_outcome>  (923) 
too moved

>  <fragmenstein_mode>  (923) 
expansion

>  <fragmenstein_error>  (923) 


$$$$
C2210-P158
     RDKit          3D

 45 45  0  0  0  0  0  0  0  0999 V2000
    3.7506   -3.5548   35.4519 C   0  0  0  0  0  0  0  0  0  0  0  0
    2.4294   -4.3143   35.4018 C   0  0  0  0  0  0  0  0  0  0  0  0
    1.4143   -3.7096   34.4395 C   0  0  0  0  0  0  0  0  0  0  0  0
    1.9166   -3.5910   33.0047 C   0  0  0  0  0  0  0  0  0  0  0  0
    2.3158   -4.9439   32.4385 C   0  0  0  0  0  0  0  0  0  0  0  0
    1.4269   -6.1266   32.8524 C   0  0  0  0  0  0  0  0  0  0  0  0
    0.0706   -5.7486   33.1607 N   0  0  0  0  0  0  0  0  0  0  0  0
   -0.8726   -6.8491   33.0326 C   0  0  0  0  0  0  0  0  0  0  0  0
   -1.0192   -7.4011   31.6155 C   0  0  0  0  0  0  0  0  0  0  0  0
   -0.6008   -6.5235   30.4128 C   0  0  0  0  0  0  0  0  0  0  0  0
   -0.5599   -4.9821   30.5365 C   0  0  0  0  0  0  0  0  0  0  0  0
    0.6779   -6.8782   29.9006 O   0  0  0  0  0  0  0  0  0  0  0  0
   -0.1195   -4.6263   34.4099 S   0  0  0  0  0  0  0  0  0  0  0  0
   -1.1122   -3.7121   33.9054 O   0  0  0  0  0  0  0  0  0  0  0  0
   -0.2134   -5.5839   35.5939 N   0  0  0  0  0  0  0  0  0  0  0  0
   -0.7571   -5.0582   36.8717 C   0  0  0  0  0  0  0  0  0  0  0  0
    0.0314   -5.7976   38.3743 S   0  0  0  0  0  0  0  0  0  0  0  0
    0.6024   -7.2561   37.7311 N   0  0  0  0  0  0  0  0  0  0  0  0
    1.1974   -5.0204   38.7385 O   0  0  0  0  0  0  0  0  0  0  0  0
   -0.9673   -6.1561   39.3534 O   0  0  0  0  0  0  0  0  0  0  0  0
    3.5850   -2.4897   35.6420 H   0  0  0  0  0  0  0  0  0  0  0  0
    4.3134   -3.6595   34.5201 H   0  0  0  0  0  0  0  0  0  0  0  0
    4.3769   -3.9479   36.2595 H   0  0  0  0  0  0  0  0  0  0  0  0
    2.6395   -5.3678   35.2029 H   0  0  0  0  0  0  0  0  0  0  0  0
    2.0145   -4.2780   36.4128 H   0  0  0  0  0  0  0  0  0  0  0  0
    1.1468   -2.7078   34.7993 H   0  0  0  0  0  0  0  0  0  0  0  0
    2.7664   -2.9017   32.9419 H   0  0  0  0  0  0  0  0  0  0  0  0
    1.1352   -3.1424   32.3791 H   0  0  0  0  0  0  0  0  0  0  0  0
    3.3412   -5.1591   32.7627 H   0  0  0  0  0  0  0  0  0  0  0  0
    2.3665   -4.8468   31.3497 H   0  0  0  0  0  0  0  0  0  0  0  0
    1.8706   -6.6552   33.7027 H   0  0  0  0  0  0  0  0  0  0  0  0
    1.4503   -6.8186   32.0306 H   0  0  0  0  0  0  0  0  0  0  0  0
   -0.6217   -7.6654   33.7211 H   0  0  0  0  0  0  0  0  0  0  0  0
   -1.8570   -6.5017   33.3512 H   0  0  0  0  0  0  0  0  0  0  0  0
   -2.0776   -7.6546   31.4995 H   0  0  0  0  0  0  0  0  0  0  0  0
   -0.4903   -8.3522   31.5462 H   0  0  0  0  0  0  0  0  0  0  0  0
   -1.2654   -6.8294   29.6017 H   0  0  0  0  0  0  0  0  0  0  0  0
   -0.7250   -4.5291   29.5490 H   0  0  0  0  0  0  0  0  0  0  0  0
    0.4183   -4.6002   30.8013 H   0  0  0  0  0  0  0  0  0  0  0  0
   -1.2963   -4.5703   31.2309 H   0  0  0  0  0  0  0  0  0  0  0  0
    0.9659   -6.1379   29.3331 H   0  0  0  0  0  0  0  0  0  0  0  0
   -1.8178   -5.2944   36.9284 H   0  0  0  0  0  0  0  0  0  0  0  0
   -0.6153   -3.9772   36.9711 H   0  0  0  0  0  0  0  0  0  0  0  0
    0.5835   -7.1667   36.7021 H   0  0  0  0  0  0  0  0  0  0  0  0
    0.0246   -8.0546   38.0148 H   0  0  0  0  0  0  0  0  0  0  0  0
  1  2  1  0
  2  3  1  0
  3  4  1  0
  4  5  1  0
  5  6  1  0
  6  7  1  0
  7  8  1  0
  8  9  1  0
  9 10  1  0
 10 11  1  0
 10 12  1  0
  7 13  1  0
 13 14  2  0
 13 15  2  0
 15 16  1  0
 16 17  1  0
 17 18  1  0
 17 19  2  0
 17 20  2  0
 13  3  1  0
  1 21  1  0
  1 22  1  0
  1 23  1  0
  2 24  1  0
  2 25  1  0
  3 26  1  0
  4 27  1  0
  4 28  1  0
  5 29  1  0
  5 30  1  0
  6 31  1  0
  6 32  1  0
  8 33  1  0
  8 34  1  0
  9 35  1  0
  9 36  1  0
 10 37  1  0
 11 38  1  0
 11 39  1  0
 11 40  1  0
 12 41  1  0
 16 42  1  0
 16 43  1  0
 18 44  1  0
 18 45  1  0
M  END
>  <Energy>  (924) 
-45.186337820597345

>  <compound_id>  (924) 
2210

>  <target_id>  (924) 
1

>  <reference_id>  (924) 
158

>  <inspiration_ids>  (924) 
[41, 158]

>  <energy_score>  (924) 
-62.218535982453965

>  <distance_score>  (924) 
2.4426184076474478

>  <path>  (924) 
/opt/xchem-fragalysis-2/maxwin/BulkDock/SCRATCH/505732/C2210-P158/C2210-P158.minimised.mol

>  <scratch_subdir>  (924) 
/opt/xchem-fragalysis-2/maxwin/BulkDock/SCRATCH/505732/C2210-P158

>  <fragmenstein_runtime>  (924) 
5.270780086517334

>  <fragmenstein_outcome>  (924) 
too moved

>  <fragmenstein_mode>  (924) 
expansion

>  <fragmenstein_error>  (924) 


$$$$
C2214-P41
     RDKit          3D

 44 45  0  0  0  0  0  0  0  0999 V2000
   -0.6714   -5.7053   42.7910 C   0  0  0  0  0  0  0  0  0  0  0  0
    0.6123   -5.9050   42.1964 O   0  0  0  0  0  0  0  0  0  0  0  0
    0.5891   -6.7109   41.0975 C   0  0  0  0  0  0  0  0  0  0  0  0
   -0.4103   -7.2572   40.6438 O   0  0  0  0  0  0  0  0  0  0  0  0
    1.9909   -6.8672   40.5308 C   0  0  0  0  0  0  0  0  0  0  0  0
    1.9299   -7.4325   39.2064 N   0  0  0  0  0  0  0  0  0  0  0  0
    3.0214   -7.5610   38.1177 C   0  0  0  0  0  0  0  0  0  0  0  0
    4.1179   -7.1606   38.0948 O   0  0  0  0  0  0  0  0  0  0  0  0
    2.3962   -8.4115   36.9584 C   0  0  0  0  0  0  0  0  0  0  0  0
    2.5678   -7.7487   35.6399 C   0  0  0  0  0  0  0  0  0  0  0  0
    1.3935   -7.3508   35.1433 C   0  0  0  0  0  0  0  0  0  0  0  0
    1.1782   -6.7557   33.9171 N   0  0  0  0  0  0  0  0  0  0  0  0
    0.1460   -7.2228   32.9942 C   0  0  0  0  0  0  0  0  0  0  0  0
   -1.0037   -6.2615   32.9233 C   0  0  0  0  0  0  0  0  0  0  0  0
   -0.5167   -4.8566   32.6124 C   0  0  0  0  0  0  0  0  0  0  0  0
   -1.6348   -3.9753   32.5565 O   0  0  0  0  0  0  0  0  0  0  0  0
    0.5088   -4.3961   33.6400 C   0  0  0  0  0  0  0  0  0  0  0  0
    1.6718   -5.3808   33.6776 C   0  0  0  0  0  0  0  0  0  0  0  0
    0.2947   -7.6504   36.1308 C   0  0  0  0  0  0  0  0  0  0  0  0
   -0.1939   -6.3983   36.8565 C   0  0  0  0  0  0  0  0  0  0  0  0
    0.9149   -8.5725   37.1118 N   0  0  0  0  0  0  0  0  0  0  0  0
   -1.0774   -6.6552   43.1526 H   0  0  0  0  0  0  0  0  0  0  0  0
   -1.3565   -5.2360   42.0778 H   0  0  0  0  0  0  0  0  0  0  0  0
   -0.5480   -5.0338   43.6452 H   0  0  0  0  0  0  0  0  0  0  0  0
    2.4891   -5.8971   40.4568 H   0  0  0  0  0  0  0  0  0  0  0  0
    2.5736   -7.5410   41.1637 H   0  0  0  0  0  0  0  0  0  0  0  0
    1.1060   -7.9776   38.9312 H   0  0  0  0  0  0  0  0  0  0  0  0
    2.8706   -9.3982   36.9786 H   0  0  0  0  0  0  0  0  0  0  0  0
    3.5297   -7.6185   35.1687 H   0  0  0  0  0  0  0  0  0  0  0  0
    0.5873   -7.3224   31.9958 H   0  0  0  0  0  0  0  0  0  0  0  0
   -0.2305   -8.2094   33.2756 H   0  0  0  0  0  0  0  0  0  0  0  0
   -1.5660   -6.2704   33.8629 H   0  0  0  0  0  0  0  0  0  0  0  0
   -1.6821   -6.6081   32.1408 H   0  0  0  0  0  0  0  0  0  0  0  0
   -0.0618   -4.8423   31.6145 H   0  0  0  0  0  0  0  0  0  0  0  0
   -2.0256   -3.9056   33.4577 H   0  0  0  0  0  0  0  0  0  0  0  0
    0.8688   -3.3924   33.3856 H   0  0  0  0  0  0  0  0  0  0  0  0
    0.0408   -4.3059   34.6268 H   0  0  0  0  0  0  0  0  0  0  0  0
    2.3890   -5.0758   34.4491 H   0  0  0  0  0  0  0  0  0  0  0  0
    2.2099   -5.3662   32.7218 H   0  0  0  0  0  0  0  0  0  0  0  0
   -0.5537   -8.1547   35.6589 H   0  0  0  0  0  0  0  0  0  0  0  0
    0.6311   -5.7603   37.1925 H   0  0  0  0  0  0  0  0  0  0  0  0
   -0.8286   -5.7975   36.1977 H   0  0  0  0  0  0  0  0  0  0  0  0
   -0.7943   -6.6562   37.7339 H   0  0  0  0  0  0  0  0  0  0  0  0
    0.6775   -9.5188   36.8066 H   0  0  0  0  0  0  0  0  0  0  0  0
  1  2  1  0
  2  3  1  0
  3  4  2  0
  3  5  1  0
  5  6  1  0
  6  7  1  0
  7  8  2  0
  7  9  1  0
  9 10  1  0
 10 11  2  0
 11 12  1  0
 12 13  1  0
 13 14  1  0
 14 15  1  0
 15 16  1  0
 15 17  1  0
 17 18  1  0
 11 19  1  0
 19 20  1  0
 19 21  1  0
 21  9  1  0
 18 12  1  0
  1 22  1  0
  1 23  1  0
  1 24  1  0
  5 25  1  0
  5 26  1  0
  6 27  1  0
  9 28  1  0
 10 29  1  0
 13 30  1  0
 13 31  1  0
 14 32  1  0
 14 33  1  0
 15 34  1  0
 16 35  1  0
 17 36  1  0
 17 37  1  0
 18 38  1  0
 18 39  1  0
 19 40  1  0
 20 41  1  0
 20 42  1  0
 20 43  1  0
 21 44  1  0
M  END
>  <Energy>  (925) 
74.906944402358661

>  <compound_id>  (925) 
2214

>  <target_id>  (925) 
1

>  <reference_id>  (925) 
41

>  <inspiration_ids>  (925) 
[41, 166]

>  <energy_score>  (925) 
-31.724945265581997

>  <distance_score>  (925) 
2.174437154093927

>  <path>  (925) 
/opt/xchem-fragalysis-2/maxwin/BulkDock/SCRATCH/505732/C2214-P41/C2214-P41.minimised.mol

>  <scratch_subdir>  (925) 
/opt/xchem-fragalysis-2/maxwin/BulkDock/SCRATCH/505732/C2214-P41

>  <fragmenstein_runtime>  (925) 
5.455490827560425

>  <fragmenstein_outcome>  (925) 
too moved

>  <fragmenstein_mode>  (925) 
expansion

>  <fragmenstein_error>  (925) 


$$$$
C2214-P166
     RDKit          3D

 44 45  0  0  0  0  0  0  0  0999 V2000
    4.2761  -13.4544   38.6208 C   0  0  0  0  0  0  0  0  0  0  0  0
    3.9636  -12.0692   38.8092 O   0  0  0  0  0  0  0  0  0  0  0  0
    4.0768  -11.6365   40.0895 C   0  0  0  0  0  0  0  0  0  0  0  0
    4.2869  -12.3760   41.0487 O   0  0  0  0  0  0  0  0  0  0  0  0
    4.0177  -10.1159   40.2258 C   0  0  0  0  0  0  0  0  0  0  0  0
    3.5018   -9.2796   39.1640 N   0  0  0  0  0  0  0  0  0  0  0  0
    3.9948   -9.0842   37.7054 C   0  0  0  0  0  0  0  0  0  0  0  0
    4.8451   -9.6258   37.1149 O   0  0  0  0  0  0  0  0  0  0  0  0
    3.1854   -7.8795   37.1223 C   0  0  0  0  0  0  0  0  0  0  0  0
    2.8123   -7.9020   35.6819 C   0  0  0  0  0  0  0  0  0  0  0  0
    1.6515   -7.2557   35.4873 C   0  0  0  0  0  0  0  0  0  0  0  0
    1.1331   -6.8110   34.2700 N   0  0  0  0  0  0  0  0  0  0  0  0
   -0.2660   -7.1229   33.8859 C   0  0  0  0  0  0  0  0  0  0  0  0
   -0.5749   -6.5657   32.5033 C   0  0  0  0  0  0  0  0  0  0  0  0
   -0.4273   -5.0413   32.4868 C   0  0  0  0  0  0  0  0  0  0  0  0
   -1.7095   -4.4131   32.5111 O   0  0  0  0  0  0  0  0  0  0  0  0
    0.4481   -4.5126   33.6176 C   0  0  0  0  0  0  0  0  0  0  0  0
    1.6095   -5.4630   33.8359 C   0  0  0  0  0  0  0  0  0  0  0  0
    1.1641   -6.7647   36.8420 C   0  0  0  0  0  0  0  0  0  0  0  0
   -0.3188   -6.8272   37.1154 C   0  0  0  0  0  0  0  0  0  0  0  0
    1.8833   -7.6428   37.8055 N   0  0  0  0  0  0  0  0  0  0  0  0
    4.1287  -13.6930   37.5640 H   0  0  0  0  0  0  0  0  0  0  0  0
    3.6088  -14.0834   39.2177 H   0  0  0  0  0  0  0  0  0  0  0  0
    5.3223  -13.6435   38.8779 H   0  0  0  0  0  0  0  0  0  0  0  0
    3.4090   -9.8936   41.1082 H   0  0  0  0  0  0  0  0  0  0  0  0
    5.0441   -9.7794   40.4054 H   0  0  0  0  0  0  0  0  0  0  0  0
    2.7919   -8.5789   39.3807 H   0  0  0  0  0  0  0  0  0  0  0  0
    3.8321   -7.0081   37.3012 H   0  0  0  0  0  0  0  0  0  0  0  0
    3.4959   -8.2614   34.9357 H   0  0  0  0  0  0  0  0  0  0  0  0
   -0.4158   -8.2044   33.8831 H   0  0  0  0  0  0  0  0  0  0  0  0
   -0.9808   -6.7010   34.5966 H   0  0  0  0  0  0  0  0  0  0  0  0
   -1.5789   -6.8712   32.1932 H   0  0  0  0  0  0  0  0  0  0  0  0
    0.1318   -7.0013   31.7853 H   0  0  0  0  0  0  0  0  0  0  0  0
    0.0179   -4.7607   31.5248 H   0  0  0  0  0  0  0  0  0  0  0  0
   -1.9919   -4.2787   33.4412 H   0  0  0  0  0  0  0  0  0  0  0  0
    0.8123   -3.5113   33.3593 H   0  0  0  0  0  0  0  0  0  0  0  0
   -0.1298   -4.3918   34.5426 H   0  0  0  0  0  0  0  0  0  0  0  0
    2.1840   -5.5864   32.9097 H   0  0  0  0  0  0  0  0  0  0  0  0
    2.2956   -5.0308   34.5752 H   0  0  0  0  0  0  0  0  0  0  0  0
    1.5024   -5.7311   36.9952 H   0  0  0  0  0  0  0  0  0  0  0  0
   -0.5280   -6.7441   38.1876 H   0  0  0  0  0  0  0  0  0  0  0  0
   -0.8397   -5.9946   36.6320 H   0  0  0  0  0  0  0  0  0  0  0  0
   -0.7410   -7.7634   36.7410 H   0  0  0  0  0  0  0  0  0  0  0  0
    1.3829   -8.5425   37.7993 H   0  0  0  0  0  0  0  0  0  0  0  0
  1  2  1  0
  2  3  1  0
  3  4  2  0
  3  5  1  0
  5  6  1  0
  6  7  1  0
  7  8  2  0
  7  9  1  0
  9 10  1  0
 10 11  2  0
 11 12  1  0
 12 13  1  0
 13 14  1  0
 14 15  1  0
 15 16  1  0
 15 17  1  0
 17 18  1  0
 11 19  1  0
 19 20  1  0
 19 21  1  0
 21  9  1  0
 18 12  1  0
  1 22  1  0
  1 23  1  0
  1 24  1  0
  5 25  1  0
  5 26  1  0
  6 27  1  0
  9 28  1  0
 10 29  1  0
 13 30  1  0
 13 31  1  0
 14 32  1  0
 14 33  1  0
 15 34  1  0
 16 35  1  0
 17 36  1  0
 17 37  1  0
 18 38  1  0
 18 39  1  0
 19 40  1  0
 20 41  1  0
 20 42  1  0
 20 43  1  0
 21 44  1  0
M  END
>  <Energy>  (926) 
95.208306260656002

>  <compound_id>  (926) 
2214

>  <target_id>  (926) 
1

>  <reference_id>  (926) 
166

>  <inspiration_ids>  (926) 
[41, 166]

>  <energy_score>  (926) 
-11.423583407284909

>  <distance_score>  (926) 
2.330035717786842

>  <path>  (926) 
/opt/xchem-fragalysis-2/maxwin/BulkDock/SCRATCH/505732/C2214-P166/C2214-P166.minimised.mol

>  <scratch_subdir>  (926) 
/opt/xchem-fragalysis-2/maxwin/BulkDock/SCRATCH/505732/C2214-P166

>  <fragmenstein_runtime>  (926) 
6.113006591796875

>  <fragmenstein_outcome>  (926) 
too moved

>  <fragmenstein_mode>  (926) 
expansion

>  <fragmenstein_error>  (926) 


$$$$
C2217-P41
     RDKit          3D

 65 68  0  0  0  0  0  0  0  0999 V2000
   -1.6855   -2.1615   31.3145 C   0  0  0  0  0  0  0  0  0  0  0  0
   -0.6075   -2.7717   32.0328 N   0  0  0  0  0  0  0  0  0  0  0  0
   -0.4090   -4.2377   32.4967 C   0  0  0  0  0  0  0  0  0  0  0  0
   -1.1286   -5.1563   32.4320 O   0  0  0  0  0  0  0  0  0  0  0  0
    1.0041   -4.3479   33.1043 C   0  0  0  0  0  0  0  0  0  0  0  0
    2.1178   -4.4782   32.0827 C   0  0  0  0  0  0  0  0  0  0  0  0
    1.8061   -5.0641   30.8428 C   0  0  0  0  0  0  0  0  0  0  0  0
    2.7362   -5.2173   29.8064 C   0  0  0  0  0  0  0  0  0  0  0  0
    4.0655   -4.8471   29.9767 C   0  0  0  0  0  0  0  0  0  0  0  0
    5.0273   -5.2659   28.9133 C   0  0  0  0  0  0  0  0  0  0  0  0
    4.8561   -5.0220   27.4700 C   0  0  0  0  0  0  0  0  0  0  0  0
    5.5781   -5.6817   26.5430 C   0  0  0  0  0  0  0  0  0  0  0  0
    6.5401   -6.6346   26.9645 C   0  0  0  0  0  0  0  0  0  0  0  0
    7.3588   -7.4248   26.3149 N   0  0  0  0  0  0  0  0  0  0  0  0
    8.0401   -8.1831   27.2392 N   0  0  0  0  0  0  0  0  0  0  0  0
    7.6457   -7.8320   28.4374 C   0  0  0  0  0  0  0  0  0  0  0  0
    8.0486   -8.3679   29.6103 N   0  0  0  0  0  0  0  0  0  0  0  0
    6.7159   -6.8186   28.3225 N   0  0  0  0  0  0  0  0  0  0  0  0
    5.9953   -6.1283   29.2873 C   0  0  0  0  0  0  0  0  0  0  0  0
    4.4046   -4.2784   31.2461 C   0  0  0  0  0  0  0  0  0  0  0  0
    3.4533   -4.1015   32.3205 C   0  0  0  0  0  0  0  0  0  0  0  0
    3.8946   -3.5788   33.6968 C   0  0  0  0  0  0  0  0  0  0  0  0
    3.9759   -2.0481   33.7963 C   0  0  0  0  0  0  0  0  0  0  0  0
    3.0009   -1.5285   34.7799 N   0  0  0  0  0  0  0  0  0  0  0  0
    1.8455   -0.6566   34.2714 S   0  0  0  0  0  0  0  0  0  0  0  0
    2.3967    1.0315   34.2574 C   0  0  0  0  0  0  0  0  0  0  0  0
    1.1452   -0.9106   33.0307 O   0  0  0  0  0  0  0  0  0  0  0  0
    0.6310   -0.7802   35.4748 N   0  0  0  0  0  0  0  0  0  0  0  0
   -0.5906    0.0251   35.3150 C   0  0  0  0  0  0  0  0  0  0  0  0
   -1.6839   -0.2836   36.3393 C   0  0  0  0  0  0  0  0  0  0  0  0
   -2.1208   -1.7435   36.2390 C   0  0  0  0  0  0  0  0  0  0  0  0
   -3.1730   -1.8447   35.2780 O   0  0  0  0  0  0  0  0  0  0  0  0
   -0.9631   -2.6606   35.8538 C   0  0  0  0  0  0  0  0  0  0  0  0
    0.3900   -2.0389   36.1876 C   0  0  0  0  0  0  0  0  0  0  0  0
   -2.4988   -2.8778   31.1946 H   0  0  0  0  0  0  0  0  0  0  0  0
   -2.0300   -1.2916   31.8778 H   0  0  0  0  0  0  0  0  0  0  0  0
   -1.3163   -1.8455   30.3366 H   0  0  0  0  0  0  0  0  0  0  0  0
    0.1996   -2.2090   32.3209 H   0  0  0  0  0  0  0  0  0  0  0  0
    1.1626   -3.4841   33.7462 H   0  0  0  0  0  0  0  0  0  0  0  0
    1.0194   -5.2319   33.7537 H   0  0  0  0  0  0  0  0  0  0  0  0
    0.7929   -5.4103   30.6324 H   0  0  0  0  0  0  0  0  0  0  0  0
    2.4023   -5.6797   28.8802 H   0  0  0  0  0  0  0  0  0  0  0  0
    4.1274   -4.2760   27.1658 H   0  0  0  0  0  0  0  0  0  0  0  0
    5.4629   -5.4961   25.4797 H   0  0  0  0  0  0  0  0  0  0  0  0
    8.1334   -7.7685   30.4229 H   0  0  0  0  0  0  0  0  0  0  0  0
    8.8461   -8.9929   29.5177 H   0  0  0  0  0  0  0  0  0  0  0  0
    6.2069   -6.3998   30.3095 H   0  0  0  0  0  0  0  0  0  0  0  0
    5.4458   -4.0097   31.4270 H   0  0  0  0  0  0  0  0  0  0  0  0
    3.2787   -4.0207   34.4891 H   0  0  0  0  0  0  0  0  0  0  0  0
    4.8999   -3.9879   33.8696 H   0  0  0  0  0  0  0  0  0  0  0  0
    3.8745   -1.5640   32.8180 H   0  0  0  0  0  0  0  0  0  0  0  0
    4.9709   -1.7793   34.1724 H   0  0  0  0  0  0  0  0  0  0  0  0
    1.5609    1.6761   33.9797 H   0  0  0  0  0  0  0  0  0  0  0  0
    3.1920    1.1272   33.5149 H   0  0  0  0  0  0  0  0  0  0  0  0
    2.7699    1.2941   35.2491 H   0  0  0  0  0  0  0  0  0  0  0  0
   -1.0063   -0.1239   34.3106 H   0  0  0  0  0  0  0  0  0  0  0  0
   -0.3284    1.0856   35.3980 H   0  0  0  0  0  0  0  0  0  0  0  0
   -2.5359    0.3870   36.1772 H   0  0  0  0  0  0  0  0  0  0  0  0
   -1.2973   -0.0800   37.3459 H   0  0  0  0  0  0  0  0  0  0  0  0
   -2.5437   -2.0547   37.2008 H   0  0  0  0  0  0  0  0  0  0  0  0
   -3.2199   -2.7712   34.9522 H   0  0  0  0  0  0  0  0  0  0  0  0
   -1.0716   -3.6187   36.3763 H   0  0  0  0  0  0  0  0  0  0  0  0
   -1.0077   -2.8961   34.7879 H   0  0  0  0  0  0  0  0  0  0  0  0
    1.1698   -2.7803   35.9889 H   0  0  0  0  0  0  0  0  0  0  0  0
    0.4471   -1.8448   37.2663 H   0  0  0  0  0  0  0  0  0  0  0  0
  1  2  1  0
  2  3  1  0
  3  4  2  0
  3  5  1  0
  5  6  1  0
  6  7  2  0
  7  8  1  0
  8  9  2  0
  9 10  1  0
 10 11  1  0
 11 12  2  0
 12 13  1  0
 13 14  2  0
 14 15  1  0
 15 16  2  0
 16 17  1  0
 16 18  1  0
 18 19  1  0
  9 20  1  0
 20 21  2  0
 21 22  1  0
 22 23  1  0
 23 24  1  0
 24 25  2  0
 25 26  1  0
 25 27  2  0
 25 28  1  0
 28 29  1  0
 29 30  1  0
 30 31  1  0
 31 32  1  0
 31 33  1  0
 33 34  1  0
 21  6  1  0
 34 28  1  0
 19 10  2  0
 18 13  1  0
  1 35  1  0
  1 36  1  0
  1 37  1  0
  2 38  1  0
  5 39  1  0
  5 40  1  0
  7 41  1  0
  8 42  1  0
 11 43  1  0
 12 44  1  0
 17 45  1  0
 17 46  1  0
 19 47  1  0
 20 48  1  0
 22 49  1  0
 22 50  1  0
 23 51  1  0
 23 52  1  0
 26 53  1  0
 26 54  1  0
 26 55  1  0
 29 56  1  0
 29 57  1  0
 30 58  1  0
 30 59  1  0
 31 60  1  0
 32 61  1  0
 33 62  1  0
 33 63  1  0
 34 64  1  0
 34 65  1  0
M  END
>  <Energy>  (927) 
1.8962524806956207

>  <compound_id>  (927) 
2217

>  <target_id>  (927) 
1

>  <reference_id>  (927) 
41

>  <inspiration_ids>  (927) 
[41, 175]

>  <energy_score>  (927) 
-63.474537264046546

>  <distance_score>  (927) 
3.0450850236878164

>  <path>  (927) 
/opt/xchem-fragalysis-2/maxwin/BulkDock/SCRATCH/505732/C2217-P41/C2217-P41.minimised.mol

>  <scratch_subdir>  (927) 
/opt/xchem-fragalysis-2/maxwin/BulkDock/SCRATCH/505732/C2217-P41

>  <fragmenstein_runtime>  (927) 
8.622379541397095

>  <fragmenstein_outcome>  (927) 
too moved

>  <fragmenstein_mode>  (927) 
expansion

>  <fragmenstein_error>  (927) 


$$$$
C2217-P175
     RDKit          3D

 65 68  0  0  0  0  0  0  0  0999 V2000
   -0.7058   -7.3191   35.5226 C   0  0  0  0  0  0  0  0  0  0  0  0
   -0.0754   -6.2627   34.7918 N   0  0  0  0  0  0  0  0  0  0  0  0
    1.3374   -6.1862   34.1433 C   0  0  0  0  0  0  0  0  0  0  0  0
    2.1692   -7.0016   34.0418 O   0  0  0  0  0  0  0  0  0  0  0  0
    1.4667   -4.7490   33.6069 C   0  0  0  0  0  0  0  0  0  0  0  0
    2.4013   -4.6344   32.4229 C   0  0  0  0  0  0  0  0  0  0  0  0
    1.9527   -5.1962   31.2145 C   0  0  0  0  0  0  0  0  0  0  0  0
    2.7398   -5.2310   30.0508 C   0  0  0  0  0  0  0  0  0  0  0  0
    4.0474   -4.7442   30.0532 C   0  0  0  0  0  0  0  0  0  0  0  0
    4.9484   -5.1683   28.9354 C   0  0  0  0  0  0  0  0  0  0  0  0
    4.6493   -5.0576   27.4984 C   0  0  0  0  0  0  0  0  0  0  0  0
    5.2843   -5.8112   26.5784 C   0  0  0  0  0  0  0  0  0  0  0  0
    6.2703   -6.7390   27.0038 C   0  0  0  0  0  0  0  0  0  0  0  0
    6.9718   -7.6469   26.3728 N   0  0  0  0  0  0  0  0  0  0  0  0
    7.7271   -8.3249   27.3016 N   0  0  0  0  0  0  0  0  0  0  0  0
    7.4946   -7.8093   28.4818 C   0  0  0  0  0  0  0  0  0  0  0  0
    7.9980   -8.2336   29.6613 N   0  0  0  0  0  0  0  0  0  0  0  0
    6.5897   -6.7744   28.3472 N   0  0  0  0  0  0  0  0  0  0  0  0
    5.9657   -5.9795   29.2995 C   0  0  0  0  0  0  0  0  0  0  0  0
    4.4754   -4.1028   31.2565 C   0  0  0  0  0  0  0  0  0  0  0  0
    3.6653   -4.0276   32.4501 C   0  0  0  0  0  0  0  0  0  0  0  0
    4.1828   -3.3306   33.7094 C   0  0  0  0  0  0  0  0  0  0  0  0
    3.9728   -1.8092   33.7007 C   0  0  0  0  0  0  0  0  0  0  0  0
    2.7297   -1.4008   34.3807 N   0  0  0  0  0  0  0  0  0  0  0  0
    1.4980   -0.9829   33.5641 S   0  0  0  0  0  0  0  0  0  0  0  0
    1.8352    0.5846   32.7954 C   0  0  0  0  0  0  0  0  0  0  0  0
    0.8090   -1.8152   32.6044 O   0  0  0  0  0  0  0  0  0  0  0  0
    0.3100   -0.7021   34.7782 N   0  0  0  0  0  0  0  0  0  0  0  0
   -0.9003    0.0432   34.3934 C   0  0  0  0  0  0  0  0  0  0  0  0
   -2.0453   -0.0511   35.4027 C   0  0  0  0  0  0  0  0  0  0  0  0
   -2.4646   -1.5059   35.6079 C   0  0  0  0  0  0  0  0  0  0  0  0
   -3.4810   -1.8333   34.6616 O   0  0  0  0  0  0  0  0  0  0  0  0
   -1.2864   -2.4704   35.4697 C   0  0  0  0  0  0  0  0  0  0  0  0
    0.0315   -1.7608   35.7538 C   0  0  0  0  0  0  0  0  0  0  0  0
   -1.6856   -7.5134   35.0826 H   0  0  0  0  0  0  0  0  0  0  0  0
   -0.0799   -8.2107   35.4796 H   0  0  0  0  0  0  0  0  0  0  0  0
   -0.8196   -6.9966   36.5592 H   0  0  0  0  0  0  0  0  0  0  0  0
   -0.5053   -5.3440   34.7776 H   0  0  0  0  0  0  0  0  0  0  0  0
    0.4845   -4.3860   33.2811 H   0  0  0  0  0  0  0  0  0  0  0  0
    1.7683   -4.1217   34.4454 H   0  0  0  0  0  0  0  0  0  0  0  0
    0.9585   -5.6411   31.1659 H   0  0  0  0  0  0  0  0  0  0  0  0
    2.3361   -5.7267   29.1715 H   0  0  0  0  0  0  0  0  0  0  0  0
    3.8882   -4.3433   27.1968 H   0  0  0  0  0  0  0  0  0  0  0  0
    5.0662   -5.7397   25.5179 H   0  0  0  0  0  0  0  0  0  0  0  0
    8.2087   -7.5489   30.3786 H   0  0  0  0  0  0  0  0  0  0  0  0
    8.7486   -8.9154   29.5669 H   0  0  0  0  0  0  0  0  0  0  0  0
    6.2584   -6.1625   30.3236 H   0  0  0  0  0  0  0  0  0  0  0  0
    5.4890   -3.7025   31.2928 H   0  0  0  0  0  0  0  0  0  0  0  0
    5.2657   -3.5178   33.7330 H   0  0  0  0  0  0  0  0  0  0  0  0
    3.8078   -3.8000   34.6244 H   0  0  0  0  0  0  0  0  0  0  0  0
    4.0451   -1.3925   32.6900 H   0  0  0  0  0  0  0  0  0  0  0  0
    4.7923   -1.3611   34.2770 H   0  0  0  0  0  0  0  0  0  0  0  0
    0.9199    0.9581   32.3326 H   0  0  0  0  0  0  0  0  0  0  0  0
    2.5929    0.4369   32.0232 H   0  0  0  0  0  0  0  0  0  0  0  0
    2.1952    1.2844   33.5520 H   0  0  0  0  0  0  0  0  0  0  0  0
   -1.2676   -0.3165   33.4239 H   0  0  0  0  0  0  0  0  0  0  0  0
   -0.6359    1.0985   34.2628 H   0  0  0  0  0  0  0  0  0  0  0  0
   -2.8921    0.5511   35.0533 H   0  0  0  0  0  0  0  0  0  0  0  0
   -1.7147    0.3777   36.3572 H   0  0  0  0  0  0  0  0  0  0  0  0
   -2.9169   -1.6068   36.6010 H   0  0  0  0  0  0  0  0  0  0  0  0
   -3.5341   -2.8111   34.5975 H   0  0  0  0  0  0  0  0  0  0  0  0
   -1.4200   -3.3052   36.1683 H   0  0  0  0  0  0  0  0  0  0  0  0
   -1.2620   -2.9183   34.4682 H   0  0  0  0  0  0  0  0  0  0  0  0
    0.8344   -2.5032   35.7886 H   0  0  0  0  0  0  0  0  0  0  0  0
    0.0069   -1.3197   36.7585 H   0  0  0  0  0  0  0  0  0  0  0  0
  1  2  1  0
  2  3  1  0
  3  4  2  0
  3  5  1  0
  5  6  1  0
  6  7  2  0
  7  8  1  0
  8  9  2  0
  9 10  1  0
 10 11  1  0
 11 12  2  0
 12 13  1  0
 13 14  2  0
 14 15  1  0
 15 16  2  0
 16 17  1  0
 16 18  1  0
 18 19  1  0
  9 20  1  0
 20 21  2  0
 21 22  1  0
 22 23  1  0
 23 24  1  0
 24 25  2  0
 25 26  1  0
 25 27  2  0
 25 28  1  0
 28 29  1  0
 29 30  1  0
 30 31  1  0
 31 32  1  0
 31 33  1  0
 33 34  1  0
 21  6  1  0
 34 28  1  0
 19 10  2  0
 18 13  1  0
  1 35  1  0
  1 36  1  0
  1 37  1  0
  2 38  1  0
  5 39  1  0
  5 40  1  0
  7 41  1  0
  8 42  1  0
 11 43  1  0
 12 44  1  0
 17 45  1  0
 17 46  1  0
 19 47  1  0
 20 48  1  0
 22 49  1  0
 22 50  1  0
 23 51  1  0
 23 52  1  0
 26 53  1  0
 26 54  1  0
 26 55  1  0
 29 56  1  0
 29 57  1  0
 30 58  1  0
 30 59  1  0
 31 60  1  0
 32 61  1  0
 33 62  1  0
 33 63  1  0
 34 64  1  0
 34 65  1  0
M  END
>  <Energy>  (928) 
10.738137585583537

>  <compound_id>  (928) 
2217

>  <target_id>  (928) 
1

>  <reference_id>  (928) 
175

>  <inspiration_ids>  (928) 
[41, 175]

>  <energy_score>  (928) 
-54.63265215915894

>  <distance_score>  (928) 
2.7099281779763844

>  <path>  (928) 
/opt/xchem-fragalysis-2/maxwin/BulkDock/SCRATCH/505732/C2217-P175/C2217-P175.minimised.mol

>  <scratch_subdir>  (928) 
/opt/xchem-fragalysis-2/maxwin/BulkDock/SCRATCH/505732/C2217-P175

>  <fragmenstein_runtime>  (928) 
9.80837345123291

>  <fragmenstein_outcome>  (928) 
too moved

>  <fragmenstein_mode>  (928) 
expansion

>  <fragmenstein_error>  (928) 


$$$$
C2218-P41
     RDKit          3D

 61 64  0  0  0  0  0  0  0  0999 V2000
    1.5666   -2.2289   39.9482 C   0  0  0  0  0  0  0  0  0  0  0  0
    3.1718   -2.8311   39.4748 S   0  0  0  0  0  0  0  0  0  0  0  0
    4.1094   -2.4593   40.5126 O   0  0  0  0  0  0  0  0  0  0  0  0
    3.0384   -4.1988   39.0242 O   0  0  0  0  0  0  0  0  0  0  0  0
    3.5158   -1.8037   38.1673 N   0  0  0  0  0  0  0  0  0  0  0  0
    3.6267   -2.4157   36.8832 C   0  0  0  0  0  0  0  0  0  0  0  0
    4.8859   -2.6637   36.3469 C   0  0  0  0  0  0  0  0  0  0  0  0
    5.0010   -3.3226   35.1211 C   0  0  0  0  0  0  0  0  0  0  0  0
    3.8614   -3.7587   34.4174 C   0  0  0  0  0  0  0  0  0  0  0  0
    4.0830   -4.5226   33.1249 C   0  0  0  0  0  0  0  0  0  0  0  0
    3.4090   -4.0266   31.9294 N   0  0  0  0  0  0  0  0  0  0  0  0
    3.8787   -2.6945   31.4803 C   0  0  0  0  0  0  0  0  0  0  0  0
    2.7686   -1.7625   30.3305 S   0  0  0  0  0  0  0  0  0  0  0  0
    1.4628   -1.6805   30.9503 O   0  0  0  0  0  0  0  0  0  0  0  0
    3.4668   -0.5544   29.9422 O   0  0  0  0  0  0  0  0  0  0  0  0
    2.6365   -2.7685   29.0023 N   0  0  0  0  0  0  0  0  0  0  0  0
    1.8446   -4.0023   28.9983 C   0  0  0  0  0  0  0  0  0  0  0  0
    2.7777   -5.1845   28.7502 C   0  0  0  0  0  0  0  0  0  0  0  0
    3.6513   -4.9959   27.5116 C   0  0  0  0  0  0  0  0  0  0  0  0
    2.8794   -5.1608   26.3239 O   0  0  0  0  0  0  0  0  0  0  0  0
    4.3441   -3.6408   27.4898 C   0  0  0  0  0  0  0  0  0  0  0  0
    3.3873   -2.4997   27.7789 C   0  0  0  0  0  0  0  0  0  0  0  0
    2.5908   -3.5081   34.9868 C   0  0  0  0  0  0  0  0  0  0  0  0
    1.3420   -3.9358   34.3496 C   0  0  0  0  0  0  0  0  0  0  0  0
    0.5473   -3.0739   33.4737 C   0  0  0  0  0  0  0  0  0  0  0  0
   -0.3564   -3.5839   32.6140 C   0  0  0  0  0  0  0  0  0  0  0  0
   -0.5847   -4.9817   32.6117 C   0  0  0  0  0  0  0  0  0  0  0  0
   -1.2235   -5.7946   31.8022 N   0  0  0  0  0  0  0  0  0  0  0  0
   -1.2115   -7.0529   32.3705 N   0  0  0  0  0  0  0  0  0  0  0  0
   -0.5489   -6.9786   33.5018 C   0  0  0  0  0  0  0  0  0  0  0  0
   -0.3558   -7.9350   34.4281 N   0  0  0  0  0  0  0  0  0  0  0  0
   -0.0101   -5.7184   33.6295 N   0  0  0  0  0  0  0  0  0  0  0  0
    0.9708   -5.2231   34.4792 C   0  0  0  0  0  0  0  0  0  0  0  0
    2.4865   -2.8302   36.2069 C   0  0  0  0  0  0  0  0  0  0  0  0
    1.6410   -1.1657   40.1842 H   0  0  0  0  0  0  0  0  0  0  0  0
    1.2474   -2.7834   40.8333 H   0  0  0  0  0  0  0  0  0  0  0  0
    0.8651   -2.4021   39.1304 H   0  0  0  0  0  0  0  0  0  0  0  0
    4.3023   -1.2037   38.4268 H   0  0  0  0  0  0  0  0  0  0  0  0
    5.7861   -2.3667   36.8784 H   0  0  0  0  0  0  0  0  0  0  0  0
    5.9988   -3.5114   34.7275 H   0  0  0  0  0  0  0  0  0  0  0  0
    5.1554   -4.6045   32.9072 H   0  0  0  0  0  0  0  0  0  0  0  0
    3.7493   -5.5514   33.3034 H   0  0  0  0  0  0  0  0  0  0  0  0
    2.4076   -3.9498   32.0993 H   0  0  0  0  0  0  0  0  0  0  0  0
    3.9953   -2.0104   32.3281 H   0  0  0  0  0  0  0  0  0  0  0  0
    4.8425   -2.7852   30.9690 H   0  0  0  0  0  0  0  0  0  0  0  0
    1.3134   -4.1419   29.9436 H   0  0  0  0  0  0  0  0  0  0  0  0
    1.0816   -3.9308   28.2169 H   0  0  0  0  0  0  0  0  0  0  0  0
    2.1915   -6.1032   28.6661 H   0  0  0  0  0  0  0  0  0  0  0  0
    3.4394   -5.3129   29.6133 H   0  0  0  0  0  0  0  0  0  0  0  0
    4.4083   -5.7893   27.4995 H   0  0  0  0  0  0  0  0  0  0  0  0
    3.5309   -5.2120   25.5967 H   0  0  0  0  0  0  0  0  0  0  0  0
    4.8229   -3.4701   26.5184 H   0  0  0  0  0  0  0  0  0  0  0  0
    5.1347   -3.6383   28.2509 H   0  0  0  0  0  0  0  0  0  0  0  0
    3.9588   -1.5693   27.8348 H   0  0  0  0  0  0  0  0  0  0  0  0
    2.6726   -2.3625   26.9792 H   0  0  0  0  0  0  0  0  0  0  0  0
    0.7384   -2.0034   33.4899 H   0  0  0  0  0  0  0  0  0  0  0  0
   -0.9021   -2.9481   31.9239 H   0  0  0  0  0  0  0  0  0  0  0  0
   -0.9613   -8.7640   34.3661 H   0  0  0  0  0  0  0  0  0  0  0  0
   -0.2398   -7.6702   35.4016 H   0  0  0  0  0  0  0  0  0  0  0  0
    1.4747   -5.9358   35.1207 H   0  0  0  0  0  0  0  0  0  0  0  0
    1.5069   -2.6406   36.6387 H   0  0  0  0  0  0  0  0  0  0  0  0
  1  2  1  0
  2  3  2  0
  2  4  2  0
  2  5  1  0
  5  6  1  0
  6  7  2  0
  7  8  1  0
  8  9  2  0
  9 10  1  0
 10 11  1  0
 11 12  1  0
 12 13  1  0
 13 14  2  0
 13 15  2  0
 13 16  1  0
 16 17  1  0
 17 18  1  0
 18 19  1  0
 19 20  1  0
 19 21  1  0
 21 22  1  0
  9 23  1  0
 23 24  1  0
 24 25  1  0
 25 26  2  0
 26 27  1  0
 27 28  2  0
 28 29  1  0
 29 30  2  0
 30 31  1  0
 30 32  1  0
 32 33  1  0
 23 34  2  0
 34  6  1  0
 22 16  1  0
 33 24  2  0
 32 27  1  0
  1 35  1  0
  1 36  1  0
  1 37  1  0
  5 38  1  0
  7 39  1  0
  8 40  1  0
 10 41  1  0
 10 42  1  0
 11 43  1  0
 12 44  1  0
 12 45  1  0
 17 46  1  0
 17 47  1  0
 18 48  1  0
 18 49  1  0
 19 50  1  0
 20 51  1  0
 21 52  1  0
 21 53  1  0
 22 54  1  0
 22 55  1  0
 25 56  1  0
 26 57  1  0
 31 58  1  0
 31 59  1  0
 33 60  1  0
 34 61  1  0
M  END
>  <Energy>  (929) 
19.38318832382696

>  <compound_id>  (929) 
2218

>  <target_id>  (929) 
1

>  <reference_id>  (929) 
41

>  <inspiration_ids>  (929) 
[41, 177]

>  <energy_score>  (929) 
-90.84363930996722

>  <distance_score>  (929) 
1.6526656213944098

>  <path>  (929) 
/opt/xchem-fragalysis-2/maxwin/BulkDock/SCRATCH/505732/C2218-P41/C2218-P41.minimised.mol

>  <scratch_subdir>  (929) 
/opt/xchem-fragalysis-2/maxwin/BulkDock/SCRATCH/505732/C2218-P41

>  <fragmenstein_runtime>  (929) 
5.34299111366272

>  <fragmenstein_outcome>  (929) 
too moved

>  <fragmenstein_mode>  (929) 
expansion

>  <fragmenstein_error>  (929) 


$$$$
C2218-P177
     RDKit          3D

 61 64  0  0  0  0  0  0  0  0999 V2000
    2.1573   -1.8748   39.7032 C   0  0  0  0  0  0  0  0  0  0  0  0
    3.6819   -2.5583   39.0935 S   0  0  0  0  0  0  0  0  0  0  0  0
    4.7325   -2.1935   40.0195 O   0  0  0  0  0  0  0  0  0  0  0  0
    3.4512   -3.9327   38.7076 O   0  0  0  0  0  0  0  0  0  0  0  0
    3.9317   -1.5882   37.7228 N   0  0  0  0  0  0  0  0  0  0  0  0
    3.8720   -2.2412   36.4556 C   0  0  0  0  0  0  0  0  0  0  0  0
    5.0526   -2.5666   35.7940 C   0  0  0  0  0  0  0  0  0  0  0  0
    5.0054   -3.2693   34.5869 C   0  0  0  0  0  0  0  0  0  0  0  0
    3.7787   -3.6711   34.0248 C   0  0  0  0  0  0  0  0  0  0  0  0
    3.8262   -4.5371   32.7752 C   0  0  0  0  0  0  0  0  0  0  0  0
    3.0200   -4.1382   31.6252 N   0  0  0  0  0  0  0  0  0  0  0  0
    3.5355   -2.9616   30.8997 C   0  0  0  0  0  0  0  0  0  0  0  0
    2.3790   -2.0322   29.7783 S   0  0  0  0  0  0  0  0  0  0  0  0
    1.2847   -1.5252   30.5844 O   0  0  0  0  0  0  0  0  0  0  0  0
    3.1964   -1.0959   29.0317 O   0  0  0  0  0  0  0  0  0  0  0  0
    1.6889   -3.1061   28.6689 N   0  0  0  0  0  0  0  0  0  0  0  0
    2.0658   -4.5184   28.5610 C   0  0  0  0  0  0  0  0  0  0  0  0
    3.3714   -4.6773   27.8009 C   0  0  0  0  0  0  0  0  0  0  0  0
    3.6605   -3.4981   26.8754 C   0  0  0  0  0  0  0  0  0  0  0  0
    4.5367   -3.9216   25.8392 O   0  0  0  0  0  0  0  0  0  0  0  0
    2.3908   -2.9030   26.2833 C   0  0  0  0  0  0  0  0  0  0  0  0
    1.3455   -2.5332   27.3364 C   0  0  0  0  0  0  0  0  0  0  0  0
    2.5907   -3.3271   34.7160 C   0  0  0  0  0  0  0  0  0  0  0  0
    1.2679   -3.7115   34.2189 C   0  0  0  0  0  0  0  0  0  0  0  0
    0.4655   -2.8746   33.3232 C   0  0  0  0  0  0  0  0  0  0  0  0
   -0.4588   -3.4152   32.5043 C   0  0  0  0  0  0  0  0  0  0  0  0
   -0.6910   -4.8122   32.5676 C   0  0  0  0  0  0  0  0  0  0  0  0
   -1.3105   -5.6649   31.7851 N   0  0  0  0  0  0  0  0  0  0  0  0
   -1.2834   -6.9021   32.3997 N   0  0  0  0  0  0  0  0  0  0  0  0
   -0.6384   -6.7736   33.5359 C   0  0  0  0  0  0  0  0  0  0  0  0
   -0.4314   -7.6890   34.4994 N   0  0  0  0  0  0  0  0  0  0  0  0
   -0.1184   -5.5039   33.6178 N   0  0  0  0  0  0  0  0  0  0  0  0
    0.8764   -4.9811   34.4314 C   0  0  0  0  0  0  0  0  0  0  0  0
    2.6470   -2.6121   35.9180 C   0  0  0  0  0  0  0  0  0  0  0  0
    2.2958   -0.8085   39.8916 H   0  0  0  0  0  0  0  0  0  0  0  0
    1.9090   -2.3864   40.6356 H   0  0  0  0  0  0  0  0  0  0  0  0
    1.3700   -2.0451   38.9671 H   0  0  0  0  0  0  0  0  0  0  0  0
    4.7704   -1.0233   37.8759 H   0  0  0  0  0  0  0  0  0  0  0  0
    6.0182   -2.3006   36.2160 H   0  0  0  0  0  0  0  0  0  0  0  0
    5.9459   -3.5266   34.1016 H   0  0  0  0  0  0  0  0  0  0  0  0
    4.8638   -4.6682   32.4423 H   0  0  0  0  0  0  0  0  0  0  0  0
    3.5003   -5.5384   33.0819 H   0  0  0  0  0  0  0  0  0  0  0  0
    2.0634   -3.9413   31.9013 H   0  0  0  0  0  0  0  0  0  0  0  0
    3.8630   -2.1900   31.6068 H   0  0  0  0  0  0  0  0  0  0  0  0
    4.3951   -3.2433   30.2844 H   0  0  0  0  0  0  0  0  0  0  0  0
    1.2685   -5.0368   28.0105 H   0  0  0  0  0  0  0  0  0  0  0  0
    2.0815   -5.0142   29.5293 H   0  0  0  0  0  0  0  0  0  0  0  0
    3.3595   -5.6228   27.2443 H   0  0  0  0  0  0  0  0  0  0  0  0
    4.2130   -4.7691   28.4959 H   0  0  0  0  0  0  0  0  0  0  0  0
    4.2044   -2.7297   27.4328 H   0  0  0  0  0  0  0  0  0  0  0  0
    4.7328   -3.1360   25.2946 H   0  0  0  0  0  0  0  0  0  0  0  0
    1.9559   -3.6082   25.5679 H   0  0  0  0  0  0  0  0  0  0  0  0
    2.6416   -2.0241   25.6788 H   0  0  0  0  0  0  0  0  0  0  0  0
    1.2317   -1.4452   27.3986 H   0  0  0  0  0  0  0  0  0  0  0  0
    0.3600   -2.9112   27.0378 H   0  0  0  0  0  0  0  0  0  0  0  0
    0.6800   -1.8093   33.2791 H   0  0  0  0  0  0  0  0  0  0  0  0
   -1.0045   -2.8109   31.7872 H   0  0  0  0  0  0  0  0  0  0  0  0
   -0.9726   -8.5613   34.4269 H   0  0  0  0  0  0  0  0  0  0  0  0
   -0.3570   -7.3848   35.4644 H   0  0  0  0  0  0  0  0  0  0  0  0
    1.3982   -5.6767   35.0779 H   0  0  0  0  0  0  0  0  0  0  0  0
    1.7288   -2.3598   36.4418 H   0  0  0  0  0  0  0  0  0  0  0  0
  1  2  1  0
  2  3  2  0
  2  4  2  0
  2  5  1  0
  5  6  1  0
  6  7  2  0
  7  8  1  0
  8  9  2  0
  9 10  1  0
 10 11  1  0
 11 12  1  0
 12 13  1  0
 13 14  2  0
 13 15  2  0
 13 16  1  0
 16 17  1  0
 17 18  1  0
 18 19  1  0
 19 20  1  0
 19 21  1  0
 21 22  1  0
  9 23  1  0
 23 24  1  0
 24 25  1  0
 25 26  2  0
 26 27  1  0
 27 28  2  0
 28 29  1  0
 29 30  2  0
 30 31  1  0
 30 32  1  0
 32 33  1  0
 23 34  2  0
 34  6  1  0
 22 16  1  0
 33 24  2  0
 32 27  1  0
  1 35  1  0
  1 36  1  0
  1 37  1  0
  5 38  1  0
  7 39  1  0
  8 40  1  0
 10 41  1  0
 10 42  1  0
 11 43  1  0
 12 44  1  0
 12 45  1  0
 17 46  1  0
 17 47  1  0
 18 48  1  0
 18 49  1  0
 19 50  1  0
 20 51  1  0
 21 52  1  0
 21 53  1  0
 22 54  1  0
 22 55  1  0
 25 56  1  0
 26 57  1  0
 31 58  1  0
 31 59  1  0
 33 60  1  0
 34 61  1  0
M  END
>  <Energy>  (930) 
36.499774265085584

>  <compound_id>  (930) 
2218

>  <target_id>  (930) 
1

>  <reference_id>  (930) 
177

>  <inspiration_ids>  (930) 
[41, 177]

>  <energy_score>  (930) 
-73.7270533687122

>  <distance_score>  (930) 
1.4493293144182853

>  <path>  (930) 
/opt/xchem-fragalysis-2/maxwin/BulkDock/SCRATCH/505732/C2218-P177/C2218-P177.minimised.mol

>  <scratch_subdir>  (930) 
/opt/xchem-fragalysis-2/maxwin/BulkDock/SCRATCH/505732/C2218-P177

>  <fragmenstein_runtime>  (930) 
6.086881875991821

>  <fragmenstein_outcome>  (930) 
too moved

>  <fragmenstein_mode>  (930) 
expansion

>  <fragmenstein_error>  (930) 


$$$$
C2219-P41
     RDKit          3D

 47 49  0  0  0  0  0  0  0  0999 V2000
    0.0215   -2.4027   33.1977 C   0  0  0  0  0  0  0  0  0  0  0  0
    0.1406   -3.4581   34.1957 N   0  0  0  0  0  0  0  0  0  0  0  0
    1.5458   -3.8320   34.3696 C   0  0  0  0  0  0  0  0  0  0  0  0
    1.9064   -5.1416   35.2450 N   0  0  0  0  0  0  0  0  0  0  0  0
    3.3535   -5.2270   35.4471 C   0  0  0  0  0  0  0  0  0  0  0  0
    4.1784   -5.7636   34.8063 O   0  0  0  0  0  0  0  0  0  0  0  0
    3.4717   -4.4216   36.6576 N   0  0  0  0  0  0  0  0  0  0  0  0
    4.6354   -3.9641   37.3741 C   0  0  0  0  0  0  0  0  0  0  0  0
    5.0208   -2.5325   36.9891 C   0  0  0  0  0  0  0  0  0  0  0  0
    5.0075   -2.2804   35.5658 N   0  0  0  0  0  0  0  0  0  0  0  0
    4.1792   -1.4221   34.9105 C   0  0  0  0  0  0  0  0  0  0  0  0
    4.3340   -1.5698   33.6161 N   0  0  0  0  0  0  0  0  0  0  0  0
    5.3320   -2.4958   33.4206 N   0  0  0  0  0  0  0  0  0  0  0  0
    5.7345   -2.9071   34.6023 C   0  0  0  0  0  0  0  0  0  0  0  0
    1.0405   -5.7905   34.2437 C   0  0  0  0  0  0  0  0  0  0  0  0
    1.3733   -5.9957   32.8927 C   0  0  0  0  0  0  0  0  0  0  0  0
    0.4523   -6.6479   32.0977 C   0  0  0  0  0  0  0  0  0  0  0  0
   -0.6287   -7.3281   32.6521 C   0  0  0  0  0  0  0  0  0  0  0  0
   -0.8963   -7.2793   34.0031 C   0  0  0  0  0  0  0  0  0  0  0  0
   -0.0715   -6.4886   34.7837 C   0  0  0  0  0  0  0  0  0  0  0  0
   -0.3457   -6.4349   36.1248 O   0  0  0  0  0  0  0  0  0  0  0  0
   -1.3923   -8.0729   31.6256 C   0  0  0  0  0  0  0  0  0  0  0  0
   -0.7497   -7.6074   30.3096 C   0  0  0  0  0  0  0  0  0  0  0  0
   -0.2704   -8.6997   29.5269 O   0  0  0  0  0  0  0  0  0  0  0  0
    0.3894   -6.6289   30.6124 C   0  0  0  0  0  0  0  0  0  0  0  0
   -1.0328   -2.1351   33.0773 H   0  0  0  0  0  0  0  0  0  0  0  0
    0.3876   -2.7364   32.2212 H   0  0  0  0  0  0  0  0  0  0  0  0
    0.5665   -1.5022   33.4990 H   0  0  0  0  0  0  0  0  0  0  0  0
   -0.2693   -3.1657   35.0787 H   0  0  0  0  0  0  0  0  0  0  0  0
    2.1823   -3.7649   33.4719 H   0  0  0  0  0  0  0  0  0  0  0  0
    1.9607   -3.0310   34.9961 H   0  0  0  0  0  0  0  0  0  0  0  0
    2.5455   -4.1839   36.9896 H   0  0  0  0  0  0  0  0  0  0  0  0
    5.4576   -4.6466   37.1331 H   0  0  0  0  0  0  0  0  0  0  0  0
    4.4300   -4.0334   38.4464 H   0  0  0  0  0  0  0  0  0  0  0  0
    4.3156   -1.8302   37.4498 H   0  0  0  0  0  0  0  0  0  0  0  0
    6.0219   -2.2877   37.3599 H   0  0  0  0  0  0  0  0  0  0  0  0
    3.4854   -0.7507   35.3962 H   0  0  0  0  0  0  0  0  0  0  0  0
    6.4919   -3.6549   34.7926 H   0  0  0  0  0  0  0  0  0  0  0  0
    2.2682   -5.5703   32.4489 H   0  0  0  0  0  0  0  0  0  0  0  0
   -1.7200   -7.8265   34.4455 H   0  0  0  0  0  0  0  0  0  0  0  0
    0.3892   -5.9215   36.5054 H   0  0  0  0  0  0  0  0  0  0  0  0
   -1.3041   -9.1501   31.7654 H   0  0  0  0  0  0  0  0  0  0  0  0
   -2.4452   -7.8037   31.6710 H   0  0  0  0  0  0  0  0  0  0  0  0
   -1.5028   -7.1212   29.6912 H   0  0  0  0  0  0  0  0  0  0  0  0
    0.2043   -9.3226   30.1171 H   0  0  0  0  0  0  0  0  0  0  0  0
    0.1129   -5.6188   30.2882 H   0  0  0  0  0  0  0  0  0  0  0  0
    1.3276   -6.9050   30.1366 H   0  0  0  0  0  0  0  0  0  0  0  0
  1  2  1  0
  2  3  1  0
  3  4  1  0
  4  5  1  0
  5  6  2  0
  5  7  1  0
  7  8  1  0
  8  9  1  0
  9 10  1  0
 10 11  1  0
 11 12  2  0
 12 13  1  0
 13 14  2  0
  4 15  1  0
 15 16  2  0
 16 17  1  0
 17 18  2  0
 18 19  1  0
 19 20  2  0
 20 21  1  0
 18 22  1  0
 22 23  1  0
 23 24  1  0
 23 25  1  0
 14 10  1  0
 20 15  1  0
 25 17  1  0
  1 26  1  0
  1 27  1  0
  1 28  1  0
  2 29  1  0
  3 30  1  0
  3 31  1  0
  7 32  1  0
  8 33  1  0
  8 34  1  0
  9 35  1  0
  9 36  1  0
 11 37  1  0
 14 38  1  0
 16 39  1  0
 19 40  1  0
 21 41  1  0
 22 42  1  0
 22 43  1  0
 23 44  1  0
 24 45  1  0
 25 46  1  0
 25 47  1  0
M  END
>  <Energy>  (931) 
52.280037194916744

>  <compound_id>  (931) 
2219

>  <target_id>  (931) 
1

>  <reference_id>  (931) 
41

>  <inspiration_ids>  (931) 
[41, 180]

>  <energy_score>  (931) 
36.47343271735676

>  <distance_score>  (931) 
3.150665119669992

>  <path>  (931) 
/opt/xchem-fragalysis-2/maxwin/BulkDock/SCRATCH/505732/C2219-P41/C2219-P41.minimised.mol

>  <scratch_subdir>  (931) 
/opt/xchem-fragalysis-2/maxwin/BulkDock/SCRATCH/505732/C2219-P41

>  <fragmenstein_runtime>  (931) 
4.456920623779297

>  <fragmenstein_outcome>  (931) 
too moved

>  <fragmenstein_mode>  (931) 
expansion

>  <fragmenstein_error>  (931) 


$$$$
C2219-P180
     RDKit          3D

 47 49  0  0  0  0  0  0  0  0999 V2000
   -0.2743   -2.2133   34.1373 C   0  0  0  0  0  0  0  0  0  0  0  0
    0.0974   -3.4455   34.8369 N   0  0  0  0  0  0  0  0  0  0  0  0
    1.4468   -3.8262   34.4149 C   0  0  0  0  0  0  0  0  0  0  0  0
    2.0138   -5.1465   35.1327 N   0  0  0  0  0  0  0  0  0  0  0  0
    3.4701   -5.0720   35.2459 C   0  0  0  0  0  0  0  0  0  0  0  0
    4.3095   -5.4434   34.5107 O   0  0  0  0  0  0  0  0  0  0  0  0
    3.5702   -4.3436   36.5039 N   0  0  0  0  0  0  0  0  0  0  0  0
    4.7116   -3.7778   37.1767 C   0  0  0  0  0  0  0  0  0  0  0  0
    5.6705   -3.0505   36.2278 C   0  0  0  0  0  0  0  0  0  0  0  0
    5.0139   -2.2210   35.2434 N   0  0  0  0  0  0  0  0  0  0  0  0
    4.1494   -1.1974   35.4696 C   0  0  0  0  0  0  0  0  0  0  0  0
    3.6378   -0.8021   34.3261 N   0  0  0  0  0  0  0  0  0  0  0  0
    4.2119   -1.5528   33.3261 N   0  0  0  0  0  0  0  0  0  0  0  0
    5.0496   -2.3904   33.8922 C   0  0  0  0  0  0  0  0  0  0  0  0
    1.1666   -5.8006   34.1244 C   0  0  0  0  0  0  0  0  0  0  0  0
    1.5222   -5.9401   32.7710 C   0  0  0  0  0  0  0  0  0  0  0  0
    0.6432   -6.6066   31.9430 C   0  0  0  0  0  0  0  0  0  0  0  0
   -0.4113   -7.3511   32.4660 C   0  0  0  0  0  0  0  0  0  0  0  0
   -0.7028   -7.3524   33.8141 C   0  0  0  0  0  0  0  0  0  0  0  0
    0.0786   -6.5560   34.6305 C   0  0  0  0  0  0  0  0  0  0  0  0
   -0.2443   -6.5131   35.9587 O   0  0  0  0  0  0  0  0  0  0  0  0
   -1.1518   -8.0737   31.4055 C   0  0  0  0  0  0  0  0  0  0  0  0
   -0.4357   -7.6330   30.1168 C   0  0  0  0  0  0  0  0  0  0  0  0
    0.2210   -8.6911   29.4147 O   0  0  0  0  0  0  0  0  0  0  0  0
    0.5785   -6.5345   30.4559 C   0  0  0  0  0  0  0  0  0  0  0  0
   -0.2905   -2.3560   33.0517 H   0  0  0  0  0  0  0  0  0  0  0  0
    0.4070   -1.3928   34.3854 H   0  0  0  0  0  0  0  0  0  0  0  0
   -1.2789   -1.9121   34.4505 H   0  0  0  0  0  0  0  0  0  0  0  0
   -0.5849   -4.1542   34.5694 H   0  0  0  0  0  0  0  0  0  0  0  0
    1.6832   -3.7028   33.3460 H   0  0  0  0  0  0  0  0  0  0  0  0
    2.0826   -3.0470   34.8529 H   0  0  0  0  0  0  0  0  0  0  0  0
    2.6460   -4.2611   36.9144 H   0  0  0  0  0  0  0  0  0  0  0  0
    4.3220   -3.0837   37.9289 H   0  0  0  0  0  0  0  0  0  0  0  0
    5.2352   -4.5852   37.6980 H   0  0  0  0  0  0  0  0  0  0  0  0
    6.3596   -2.4123   36.7917 H   0  0  0  0  0  0  0  0  0  0  0  0
    6.2768   -3.7849   35.6841 H   0  0  0  0  0  0  0  0  0  0  0  0
    3.9072   -0.8026   36.4460 H   0  0  0  0  0  0  0  0  0  0  0  0
    5.6524   -3.1335   33.3884 H   0  0  0  0  0  0  0  0  0  0  0  0
    2.4014   -5.4508   32.3599 H   0  0  0  0  0  0  0  0  0  0  0  0
   -1.5209   -7.9344   34.2240 H   0  0  0  0  0  0  0  0  0  0  0  0
    0.3622   -5.8575   36.3544 H   0  0  0  0  0  0  0  0  0  0  0  0
   -1.1168   -9.1533   31.5510 H   0  0  0  0  0  0  0  0  0  0  0  0
   -2.1886   -7.7347   31.4143 H   0  0  0  0  0  0  0  0  0  0  0  0
   -1.1839   -7.2521   29.4226 H   0  0  0  0  0  0  0  0  0  0  0  0
    0.4706   -9.3968   30.0492 H   0  0  0  0  0  0  0  0  0  0  0  0
    0.1790   -5.5531   30.1749 H   0  0  0  0  0  0  0  0  0  0  0  0
    1.5459   -6.6733   29.9740 H   0  0  0  0  0  0  0  0  0  0  0  0
  1  2  1  0
  2  3  1  0
  3  4  1  0
  4  5  1  0
  5  6  2  0
  5  7  1  0
  7  8  1  0
  8  9  1  0
  9 10  1  0
 10 11  1  0
 11 12  2  0
 12 13  1  0
 13 14  2  0
  4 15  1  0
 15 16  2  0
 16 17  1  0
 17 18  2  0
 18 19  1  0
 19 20  2  0
 20 21  1  0
 18 22  1  0
 22 23  1  0
 23 24  1  0
 23 25  1  0
 14 10  1  0
 20 15  1  0
 25 17  1  0
  1 26  1  0
  1 27  1  0
  1 28  1  0
  2 29  1  0
  3 30  1  0
  3 31  1  0
  7 32  1  0
  8 33  1  0
  8 34  1  0
  9 35  1  0
  9 36  1  0
 11 37  1  0
 14 38  1  0
 16 39  1  0
 19 40  1  0
 21 41  1  0
 22 42  1  0
 22 43  1  0
 23 44  1  0
 24 45  1  0
 25 46  1  0
 25 47  1  0
M  END
>  <Energy>  (932) 
40.187982034170211

>  <compound_id>  (932) 
2219

>  <target_id>  (932) 
1

>  <reference_id>  (932) 
180

>  <inspiration_ids>  (932) 
[41, 180]

>  <energy_score>  (932) 
24.381377556608612

>  <distance_score>  (932) 
3.273647092399759

>  <path>  (932) 
/opt/xchem-fragalysis-2/maxwin/BulkDock/SCRATCH/505732/C2219-P180/C2219-P180.minimised.mol

>  <scratch_subdir>  (932) 
/opt/xchem-fragalysis-2/maxwin/BulkDock/SCRATCH/505732/C2219-P180

>  <fragmenstein_runtime>  (932) 
4.937422752380371

>  <fragmenstein_outcome>  (932) 
too moved

>  <fragmenstein_mode>  (932) 
expansion

>  <fragmenstein_error>  (932) 


$$$$
C2220-P41
     RDKit          3D

 55 57  0  0  0  0  0  0  0  0999 V2000
    2.7901    1.4866   31.6671 C   0  0  0  0  0  0  0  0  0  0  0  0
    2.7812    0.2668   32.4702 N   0  0  0  0  0  0  0  0  0  0  0  0
    1.4807   -0.4286   32.3495 C   0  0  0  0  0  0  0  0  0  0  0  0
    1.6372   -1.7205   33.1398 N   0  0  0  0  0  0  0  0  0  0  0  0
    1.6700   -1.4276   34.5808 C   0  0  0  0  0  0  0  0  0  0  0  0
    0.7975   -1.3751   35.3631 O   0  0  0  0  0  0  0  0  0  0  0  0
    3.1031   -1.3198   34.7635 N   0  0  0  0  0  0  0  0  0  0  0  0
    3.8930   -1.2120   35.9609 C   0  0  0  0  0  0  0  0  0  0  0  0
    4.7513   -2.4482   36.2293 C   0  0  0  0  0  0  0  0  0  0  0  0
    4.0869   -3.7300   36.2434 N   0  0  0  0  0  0  0  0  0  0  0  0
    4.6552   -4.9087   35.8580 C   0  0  0  0  0  0  0  0  0  0  0  0
    3.7872   -5.8842   35.9945 N   0  0  0  0  0  0  0  0  0  0  0  0
    2.6331   -5.3382   36.5021 N   0  0  0  0  0  0  0  0  0  0  0  0
    2.8313   -4.0460   36.6577 C   0  0  0  0  0  0  0  0  0  0  0  0
    0.4700   -2.1615   32.2375 C   0  0  0  0  0  0  0  0  0  0  0  0
   -0.3155   -3.2056   33.0900 C   0  0  0  0  0  0  0  0  0  0  0  0
   -0.9161   -4.3447   32.2943 C   0  0  0  0  0  0  0  0  0  0  0  0
    0.0850   -5.1866   31.5077 C   0  0  0  0  0  0  0  0  0  0  0  0
    0.5967   -6.3943   32.3046 C   0  0  0  0  0  0  0  0  0  0  0  0
    1.5503   -6.0085   33.4283 C   0  0  0  0  0  0  0  0  0  0  0  0
    2.1537   -7.1822   33.9821 O   0  0  0  0  0  0  0  0  0  0  0  0
    2.6424   -5.0407   32.9705 C   0  0  0  0  0  0  0  0  0  0  0  0
    2.6072   -4.6863   31.4889 C   0  0  0  0  0  0  0  0  0  0  0  0
    1.2263   -4.3415   30.9200 C   0  0  0  0  0  0  0  0  0  0  0  0
    0.9342   -2.8283   30.9048 C   0  0  0  0  0  0  0  0  0  0  0  0
    1.9853    2.1681   31.9614 H   0  0  0  0  0  0  0  0  0  0  0  0
    2.6981    1.2598   30.6001 H   0  0  0  0  0  0  0  0  0  0  0  0
    3.7419    2.0074   31.8108 H   0  0  0  0  0  0  0  0  0  0  0  0
    2.8761    0.5429   33.4492 H   0  0  0  0  0  0  0  0  0  0  0  0
    1.3294   -0.4946   31.2634 H   0  0  0  0  0  0  0  0  0  0  0  0
    0.7142    0.2083   32.8197 H   0  0  0  0  0  0  0  0  0  0  0  0
    3.5563   -1.3288   33.8516 H   0  0  0  0  0  0  0  0  0  0  0  0
    3.2096   -1.0378   36.7990 H   0  0  0  0  0  0  0  0  0  0  0  0
    4.5312   -0.3290   35.8557 H   0  0  0  0  0  0  0  0  0  0  0  0
    5.5289   -2.5061   35.4569 H   0  0  0  0  0  0  0  0  0  0  0  0
    5.2556   -2.3456   37.1971 H   0  0  0  0  0  0  0  0  0  0  0  0
    5.6678   -5.0038   35.4919 H   0  0  0  0  0  0  0  0  0  0  0  0
    2.1092   -3.3357   37.0387 H   0  0  0  0  0  0  0  0  0  0  0  0
   -0.3212   -1.4104   32.0460 H   0  0  0  0  0  0  0  0  0  0  0  0
    0.3062   -3.6164   33.8873 H   0  0  0  0  0  0  0  0  0  0  0  0
   -1.1227   -2.6799   33.6187 H   0  0  0  0  0  0  0  0  0  0  0  0
   -1.6306   -3.9058   31.5880 H   0  0  0  0  0  0  0  0  0  0  0  0
   -1.4685   -4.9912   32.9804 H   0  0  0  0  0  0  0  0  0  0  0  0
   -0.4773   -5.6121   30.6650 H   0  0  0  0  0  0  0  0  0  0  0  0
    1.0939   -7.0768   31.6092 H   0  0  0  0  0  0  0  0  0  0  0  0
   -0.2395   -6.9751   32.7148 H   0  0  0  0  0  0  0  0  0  0  0  0
    0.9735   -5.5660   34.2456 H   0  0  0  0  0  0  0  0  0  0  0  0
    2.5552   -6.8727   34.8315 H   0  0  0  0  0  0  0  0  0  0  0  0
    2.5583   -4.1205   33.5517 H   0  0  0  0  0  0  0  0  0  0  0  0
    3.6360   -5.4395   33.2017 H   0  0  0  0  0  0  0  0  0  0  0  0
    3.3238   -3.8807   31.2886 H   0  0  0  0  0  0  0  0  0  0  0  0
    2.9837   -5.5511   30.9293 H   0  0  0  0  0  0  0  0  0  0  0  0
    1.2942   -4.6164   29.8556 H   0  0  0  0  0  0  0  0  0  0  0  0
    1.8025   -2.3148   30.4749 H   0  0  0  0  0  0  0  0  0  0  0  0
    0.1211   -2.6712   30.1808 H   0  0  0  0  0  0  0  0  0  0  0  0
  1  2  1  0
  2  3  1  0
  3  4  1  0
  4  5  1  0
  5  6  2  0
  5  7  1  0
  7  8  1  0
  8  9  1  0
  9 10  1  0
 10 11  1  0
 11 12  2  0
 12 13  1  0
 13 14  2  0
  4 15  1  0
 15 16  1  0
 16 17  1  0
 17 18  1  0
 18 19  1  0
 19 20  1  0
 20 21  1  0
 20 22  1  0
 22 23  1  0
 23 24  1  0
 24 25  1  0
 14 10  1  0
 25 15  1  0
 24 18  1  0
  1 26  1  0
  1 27  1  0
  1 28  1  0
  2 29  1  0
  3 30  1  0
  3 31  1  0
  7 32  1  0
  8 33  1  0
  8 34  1  0
  9 35  1  0
  9 36  1  0
 11 37  1  0
 14 38  1  0
 15 39  1  0
 16 40  1  0
 16 41  1  0
 17 42  1  0
 17 43  1  0
 18 44  1  0
 19 45  1  0
 19 46  1  0
 20 47  1  0
 21 48  1  0
 22 49  1  0
 22 50  1  0
 23 51  1  0
 23 52  1  0
 24 53  1  0
 25 54  1  0
 25 55  1  0
M  END
>  <Energy>  (933) 
-5.2805764180983923

>  <compound_id>  (933) 
2220

>  <target_id>  (933) 
1

>  <reference_id>  (933) 
41

>  <inspiration_ids>  (933) 
[41, 183]

>  <energy_score>  (933) 
38.88678878886489

>  <distance_score>  (933) 
3.274579422386209

>  <path>  (933) 
/opt/xchem-fragalysis-2/maxwin/BulkDock/SCRATCH/505732/C2220-P41/C2220-P41.minimised.mol

>  <scratch_subdir>  (933) 
/opt/xchem-fragalysis-2/maxwin/BulkDock/SCRATCH/505732/C2220-P41

>  <fragmenstein_runtime>  (933) 
5.554428815841675

>  <fragmenstein_outcome>  (933) 
too moved

>  <fragmenstein_mode>  (933) 
expansion

>  <fragmenstein_error>  (933) 


$$$$
C2220-P183
     RDKit          3D

 55 57  0  0  0  0  0  0  0  0999 V2000
    4.8169   -6.7048   36.5191 C   0  0  0  0  0  0  0  0  0  0  0  0
    3.7236   -5.7486   36.4117 N   0  0  0  0  0  0  0  0  0  0  0  0
    3.3188   -5.5564   35.0064 C   0  0  0  0  0  0  0  0  0  0  0  0
    2.1645   -4.5867   35.1191 N   0  0  0  0  0  0  0  0  0  0  0  0
    2.6379   -3.2203   34.8544 C   0  0  0  0  0  0  0  0  0  0  0  0
    2.6921   -2.6160   33.8471 O   0  0  0  0  0  0  0  0  0  0  0  0
    3.0186   -2.8427   36.1962 N   0  0  0  0  0  0  0  0  0  0  0  0
    3.6627   -1.6599   36.6913 C   0  0  0  0  0  0  0  0  0  0  0  0
    5.1497   -1.8889   36.9552 C   0  0  0  0  0  0  0  0  0  0  0  0
    5.8684   -2.5942   35.9175 N   0  0  0  0  0  0  0  0  0  0  0  0
    5.8228   -2.3974   34.5725 C   0  0  0  0  0  0  0  0  0  0  0  0
    6.5585   -3.3074   33.9727 N   0  0  0  0  0  0  0  0  0  0  0  0
    7.1385   -4.0865   34.9472 N   0  0  0  0  0  0  0  0  0  0  0  0
    6.7210   -3.6392   36.1092 C   0  0  0  0  0  0  0  0  0  0  0  0
    1.4270   -5.6969   34.1098 C   0  0  0  0  0  0  0  0  0  0  0  0
    1.3162   -7.1324   34.8990 C   0  0  0  0  0  0  0  0  0  0  0  0
    0.0556   -7.1518   35.6847 C   0  0  0  0  0  0  0  0  0  0  0  0
   -0.8032   -6.3302   34.7963 C   0  0  0  0  0  0  0  0  0  0  0  0
   -0.5337   -4.4677   35.1742 C   0  0  0  0  0  0  0  0  0  0  0  0
   -0.0766   -3.3726   33.7245 C   0  0  0  0  0  0  0  0  0  0  0  0
    0.3026   -2.0690   34.1319 O   0  0  0  0  0  0  0  0  0  0  0  0
    0.8548   -4.0563   32.2254 C   0  0  0  0  0  0  0  0  0  0  0  0
    0.5734   -5.8984   31.7843 C   0  0  0  0  0  0  0  0  0  0  0  0
   -0.4269   -6.8086   33.0268 C   0  0  0  0  0  0  0  0  0  0  0  0
   -0.3619   -5.4608   33.2881 C   0  0  0  0  0  0  0  0  0  0  0  0
    5.1444   -6.7667   37.5613 H   0  0  0  0  0  0  0  0  0  0  0  0
    5.6787   -6.4027   35.9175 H   0  0  0  0  0  0  0  0  0  0  0  0
    4.5046   -7.7065   36.2058 H   0  0  0  0  0  0  0  0  0  0  0  0
    2.9160   -6.0816   36.9351 H   0  0  0  0  0  0  0  0  0  0  0  0
    3.3700   -6.4989   34.4440 H   0  0  0  0  0  0  0  0  0  0  0  0
    4.1352   -4.9925   34.5300 H   0  0  0  0  0  0  0  0  0  0  0  0
    2.9108   -3.6453   36.8095 H   0  0  0  0  0  0  0  0  0  0  0  0
    3.1539   -1.3507   37.6092 H   0  0  0  0  0  0  0  0  0  0  0  0
    3.5323   -0.8715   35.9421 H   0  0  0  0  0  0  0  0  0  0  0  0
    5.6623   -0.9336   37.1129 H   0  0  0  0  0  0  0  0  0  0  0  0
    5.2589   -2.4775   37.8747 H   0  0  0  0  0  0  0  0  0  0  0  0
    5.2400   -1.6278   34.0848 H   0  0  0  0  0  0  0  0  0  0  0  0
    6.9849   -4.0379   37.0781 H   0  0  0  0  0  0  0  0  0  0  0  0
    2.1190   -5.8015   33.2665 H   0  0  0  0  0  0  0  0  0  0  0  0
    1.3076   -7.9073   34.1340 H   0  0  0  0  0  0  0  0  0  0  0  0
    2.1128   -7.4476   35.5710 H   0  0  0  0  0  0  0  0  0  0  0  0
    0.1653   -6.7021   36.6755 H   0  0  0  0  0  0  0  0  0  0  0  0
   -0.3234   -8.1699   35.8022 H   0  0  0  0  0  0  0  0  0  0  0  0
   -1.8618   -6.5441   35.0064 H   0  0  0  0  0  0  0  0  0  0  0  0
   -1.4979   -4.0850   35.5310 H   0  0  0  0  0  0  0  0  0  0  0  0
    0.1336   -4.3392   36.0296 H   0  0  0  0  0  0  0  0  0  0  0  0
   -1.0667   -3.1531   33.2863 H   0  0  0  0  0  0  0  0  0  0  0  0
    1.1549   -1.8812   33.6883 H   0  0  0  0  0  0  0  0  0  0  0  0
    1.9314   -3.9057   32.2795 H   0  0  0  0  0  0  0  0  0  0  0  0
    0.4946   -3.4780   31.3625 H   0  0  0  0  0  0  0  0  0  0  0  0
    0.0054   -5.8959   30.8366 H   0  0  0  0  0  0  0  0  0  0  0  0
    1.5248   -6.3980   31.5729 H   0  0  0  0  0  0  0  0  0  0  0  0
   -1.3684   -7.1064   32.5524 H   0  0  0  0  0  0  0  0  0  0  0  0
   -1.3958   -5.1266   33.6256 H   0  0  0  0  0  0  0  0  0  0  0  0
   -0.8030   -4.9024   32.3957 H   0  0  0  0  0  0  0  0  0  0  0  0
  1  2  1  0
  2  3  1  0
  3  4  1  0
  4  5  1  0
  5  6  2  0
  5  7  1  0
  7  8  1  0
  8  9  1  0
  9 10  1  0
 10 11  1  0
 11 12  2  0
 12 13  1  0
 13 14  2  0
  4 15  1  0
 15 16  1  0
 16 17  1  0
 17 18  1  0
 18 19  1  0
 19 20  1  0
 20 21  1  0
 20 22  1  0
 22 23  1  0
 23 24  1  0
 24 25  1  0
 14 10  1  0
 25 15  1  0
 24 18  1  0
  1 26  1  0
  1 27  1  0
  1 28  1  0
  2 29  1  0
  3 30  1  0
  3 31  1  0
  7 32  1  0
  8 33  1  0
  8 34  1  0
  9 35  1  0
  9 36  1  0
 11 37  1  0
 14 38  1  0
 15 39  1  0
 16 40  1  0
 16 41  1  0
 17 42  1  0
 17 43  1  0
 18 44  1  0
 19 45  1  0
 19 46  1  0
 20 47  1  0
 21 48  1  0
 22 49  1  0
 22 50  1  0
 23 51  1  0
 23 52  1  0
 24 53  1  0
 25 54  1  0
 25 55  1  0
M  END
>  <Energy>  (934) 
557.36900885784678

>  <compound_id>  (934) 
2220

>  <target_id>  (934) 
1

>  <reference_id>  (934) 
183

>  <inspiration_ids>  (934) 
[41, 183]

>  <energy_score>  (934) 
601.5363740648105

>  <distance_score>  (934) 
3.038876904143068

>  <path>  (934) 
/opt/xchem-fragalysis-2/maxwin/BulkDock/SCRATCH/505732/C2220-P183/C2220-P183.minimised.mol

>  <scratch_subdir>  (934) 
/opt/xchem-fragalysis-2/maxwin/BulkDock/SCRATCH/505732/C2220-P183

>  <fragmenstein_runtime>  (934) 
8.70006775856018

>  <fragmenstein_outcome>  (934) 
too moved

>  <fragmenstein_mode>  (934) 
expansion

>  <fragmenstein_error>  (934) 


$$$$
C2221-P41
     RDKit          3D

 64 67  0  0  0  0  0  0  0  0999 V2000
    4.1229   -0.4512   37.6155 C   0  0  0  0  0  0  0  0  0  0  0  0
    3.7340   -1.3375   36.5729 O   0  0  0  0  0  0  0  0  0  0  0  0
    3.7010   -2.6720   36.8827 C   0  0  0  0  0  0  0  0  0  0  0  0
    2.7355   -3.3704   36.1463 C   0  0  0  0  0  0  0  0  0  0  0  0
    2.5162   -4.7477   36.3008 C   0  0  0  0  0  0  0  0  0  0  0  0
    1.4253   -5.4488   35.5081 C   0  0  0  0  0  0  0  0  0  0  0  0
    1.2696   -5.0251   34.0347 C   0  0  0  0  0  0  0  0  0  0  0  0
    0.5588   -3.7510   33.9132 N   0  0  0  0  0  0  0  0  0  0  0  0
    0.6419   -3.2069   32.5374 C   0  0  0  0  0  0  0  0  0  0  0  0
   -0.3189   -4.0704   31.2484 S   0  0  0  0  0  0  0  0  0  0  0  0
   -1.6419   -4.2981   31.7984 O   0  0  0  0  0  0  0  0  0  0  0  0
    0.4693   -5.1800   30.7522 O   0  0  0  0  0  0  0  0  0  0  0  0
   -0.4705   -2.9227   30.0403 N   0  0  0  0  0  0  0  0  0  0  0  0
   -1.4195   -1.8087   30.2320 C   0  0  0  0  0  0  0  0  0  0  0  0
   -1.5245   -0.9848   28.9622 C   0  0  0  0  0  0  0  0  0  0  0  0
   -0.1796   -0.3534   28.6266 C   0  0  0  0  0  0  0  0  0  0  0  0
   -0.1436    0.0240   27.2560 O   0  0  0  0  0  0  0  0  0  0  0  0
    1.0122   -1.2489   28.9673 C   0  0  0  0  0  0  0  0  0  0  0  0
    0.6264   -2.7181   29.0736 C   0  0  0  0  0  0  0  0  0  0  0  0
    3.2879   -5.4178   37.2671 C   0  0  0  0  0  0  0  0  0  0  0  0
    3.0908   -6.8357   37.6232 C   0  0  0  0  0  0  0  0  0  0  0  0
    4.0047   -7.9034   37.2064 C   0  0  0  0  0  0  0  0  0  0  0  0
    3.8414   -9.1783   37.6100 C   0  0  0  0  0  0  0  0  0  0  0  0
    2.7531   -9.5084   38.4609 C   0  0  0  0  0  0  0  0  0  0  0  0
    2.3577  -10.6375   39.0038 N   0  0  0  0  0  0  0  0  0  0  0  0
    1.2189  -10.3754   39.7333 N   0  0  0  0  0  0  0  0  0  0  0  0
    0.9547   -9.0908   39.6462 C   0  0  0  0  0  0  0  0  0  0  0  0
   -0.0615   -8.4235   40.2414 N   0  0  0  0  0  0  0  0  0  0  0  0
    1.8972   -8.4847   38.8366 N   0  0  0  0  0  0  0  0  0  0  0  0
    2.0576   -7.1611   38.4292 C   0  0  0  0  0  0  0  0  0  0  0  0
    4.2906   -4.7247   37.9790 C   0  0  0  0  0  0  0  0  0  0  0  0
    4.5217   -3.3587   37.7834 C   0  0  0  0  0  0  0  0  0  0  0  0
    5.5050   -2.6554   38.4238 O   0  0  0  0  0  0  0  0  0  0  0  0
    6.4525   -3.3816   39.1961 C   0  0  0  0  0  0  0  0  0  0  0  0
    3.7193    0.5374   37.3746 H   0  0  0  0  0  0  0  0  0  0  0  0
    5.2120   -0.3559   37.6525 H   0  0  0  0  0  0  0  0  0  0  0  0
    3.7103   -0.7442   38.5871 H   0  0  0  0  0  0  0  0  0  0  0  0
    2.1319   -2.7867   35.4568 H   0  0  0  0  0  0  0  0  0  0  0  0
    0.4741   -5.3327   36.0434 H   0  0  0  0  0  0  0  0  0  0  0  0
    1.6376   -6.5244   35.4824 H   0  0  0  0  0  0  0  0  0  0  0  0
    0.7015   -5.8024   33.5101 H   0  0  0  0  0  0  0  0  0  0  0  0
    2.2616   -4.9673   33.5699 H   0  0  0  0  0  0  0  0  0  0  0  0
   -0.4331   -3.8947   34.1343 H   0  0  0  0  0  0  0  0  0  0  0  0
    1.6785   -3.1378   32.1919 H   0  0  0  0  0  0  0  0  0  0  0  0
    0.2374   -2.1922   32.5856 H   0  0  0  0  0  0  0  0  0  0  0  0
   -1.0927   -1.1730   31.0615 H   0  0  0  0  0  0  0  0  0  0  0  0
   -2.4050   -2.2103   30.4827 H   0  0  0  0  0  0  0  0  0  0  0  0
   -1.8802   -1.6087   28.1327 H   0  0  0  0  0  0  0  0  0  0  0  0
   -2.2679   -0.1902   29.0850 H   0  0  0  0  0  0  0  0  0  0  0  0
   -0.0697    0.5786   29.1940 H   0  0  0  0  0  0  0  0  0  0  0  0
   -0.5198   -0.7073   26.7219 H   0  0  0  0  0  0  0  0  0  0  0  0
    1.4160   -0.9361   29.9394 H   0  0  0  0  0  0  0  0  0  0  0  0
    1.8153   -1.1285   28.2314 H   0  0  0  0  0  0  0  0  0  0  0  0
    0.2991   -3.1012   28.1027 H   0  0  0  0  0  0  0  0  0  0  0  0
    1.5138   -3.2913   29.3615 H   0  0  0  0  0  0  0  0  0  0  0  0
    4.8368   -7.6357   36.5603 H   0  0  0  0  0  0  0  0  0  0  0  0
    4.5223   -9.9664   37.3072 H   0  0  0  0  0  0  0  0  0  0  0  0
    0.1216   -7.4916   40.5992 H   0  0  0  0  0  0  0  0  0  0  0  0
   -0.5552   -8.9878   40.9328 H   0  0  0  0  0  0  0  0  0  0  0  0
    1.3359   -6.4427   38.7979 H   0  0  0  0  0  0  0  0  0  0  0  0
    4.8743   -5.2837   38.7055 H   0  0  0  0  0  0  0  0  0  0  0  0
    5.9803   -3.8256   40.0783 H   0  0  0  0  0  0  0  0  0  0  0  0
    6.9613   -4.1406   38.5926 H   0  0  0  0  0  0  0  0  0  0  0  0
    7.2097   -2.6735   39.5466 H   0  0  0  0  0  0  0  0  0  0  0  0
  1  2  1  0
  2  3  1  0
  3  4  2  0
  4  5  1  0
  5  6  1  0
  6  7  1  0
  7  8  1  0
  8  9  1  0
  9 10  1  0
 10 11  2  0
 10 12  2  0
 10 13  1  0
 13 14  1  0
 14 15  1  0
 15 16  1  0
 16 17  1  0
 16 18  1  0
 18 19  1  0
  5 20  2  0
 20 21  1  0
 21 22  1  0
 22 23  2  0
 23 24  1  0
 24 25  2  0
 25 26  1  0
 26 27  2  0
 27 28  1  0
 27 29  1  0
 29 30  1  0
 20 31  1  0
 31 32  2  0
 32 33  1  0
 33 34  1  0
 32  3  1  0
 19 13  1  0
 30 21  2  0
 29 24  1  0
  1 35  1  0
  1 36  1  0
  1 37  1  0
  4 38  1  0
  6 39  1  0
  6 40  1  0
  7 41  1  0
  7 42  1  0
  8 43  1  0
  9 44  1  0
  9 45  1  0
 14 46  1  0
 14 47  1  0
 15 48  1  0
 15 49  1  0
 16 50  1  0
 17 51  1  0
 18 52  1  0
 18 53  1  0
 19 54  1  0
 19 55  1  0
 22 56  1  0
 23 57  1  0
 28 58  1  0
 28 59  1  0
 30 60  1  0
 31 61  1  0
 34 62  1  0
 34 63  1  0
 34 64  1  0
M  END
>  <Energy>  (935) 
114.44402386143325

>  <compound_id>  (935) 
2221

>  <target_id>  (935) 
1

>  <reference_id>  (935) 
41

>  <inspiration_ids>  (935) 
[41, 186]

>  <energy_score>  (935) 
-82.06600081047401

>  <distance_score>  (935) 
2.7636339554405835

>  <path>  (935) 
/opt/xchem-fragalysis-2/maxwin/BulkDock/SCRATCH/505732/C2221-P41/C2221-P41.minimised.mol

>  <scratch_subdir>  (935) 
/opt/xchem-fragalysis-2/maxwin/BulkDock/SCRATCH/505732/C2221-P41

>  <fragmenstein_runtime>  (935) 
14.915111541748047

>  <fragmenstein_outcome>  (935) 
too moved

>  <fragmenstein_mode>  (935) 
expansion

>  <fragmenstein_error>  (935) 


$$$$
C2221-P186
     RDKit          3D

 64 67  0  0  0  0  0  0  0  0999 V2000
    1.7070   -1.3490   38.6975 C   0  0  0  0  0  0  0  0  0  0  0  0
    1.6937   -1.8236   37.3589 O   0  0  0  0  0  0  0  0  0  0  0  0
    2.5206   -2.8568   37.0270 C   0  0  0  0  0  0  0  0  0  0  0  0
    2.2189   -3.3286   35.7504 C   0  0  0  0  0  0  0  0  0  0  0  0
    2.8205   -4.4650   35.2027 C   0  0  0  0  0  0  0  0  0  0  0  0
    2.2675   -4.9547   33.8947 C   0  0  0  0  0  0  0  0  0  0  0  0
    0.8091   -5.4511   34.0262 C   0  0  0  0  0  0  0  0  0  0  0  0
   -0.0656   -4.9688   32.9524 N   0  0  0  0  0  0  0  0  0  0  0  0
   -0.4145   -3.5339   33.1774 C   0  0  0  0  0  0  0  0  0  0  0  0
   -1.5752   -2.6521   32.0681 S   0  0  0  0  0  0  0  0  0  0  0  0
   -1.8698   -1.3719   32.6838 O   0  0  0  0  0  0  0  0  0  0  0  0
   -2.6482   -3.5332   31.6663 O   0  0  0  0  0  0  0  0  0  0  0  0
   -0.6614   -2.3310   30.6698 N   0  0  0  0  0  0  0  0  0  0  0  0
   -1.1199   -1.1293   29.9054 C   0  0  0  0  0  0  0  0  0  0  0  0
   -1.4676   -1.4632   28.4679 C   0  0  0  0  0  0  0  0  0  0  0  0
   -0.2757   -2.0493   27.7288 C   0  0  0  0  0  0  0  0  0  0  0  0
   -0.7238   -2.7500   26.5711 O   0  0  0  0  0  0  0  0  0  0  0  0
    0.5603   -2.9670   28.6154 C   0  0  0  0  0  0  0  0  0  0  0  0
   -0.2458   -3.4687   29.8100 C   0  0  0  0  0  0  0  0  0  0  0  0
    3.8436   -5.0790   35.9305 C   0  0  0  0  0  0  0  0  0  0  0  0
    4.6205   -6.2382   35.4644 C   0  0  0  0  0  0  0  0  0  0  0  0
    4.3050   -7.6215   35.8328 C   0  0  0  0  0  0  0  0  0  0  0  0
    5.1204   -8.6454   35.5112 C   0  0  0  0  0  0  0  0  0  0  0  0
    6.3125   -8.3897   34.7821 C   0  0  0  0  0  0  0  0  0  0  0  0
    7.2646   -9.1727   34.3297 N   0  0  0  0  0  0  0  0  0  0  0  0
    8.1931   -8.3776   33.6930 N   0  0  0  0  0  0  0  0  0  0  0  0
    7.7878   -7.1287   33.7561 C   0  0  0  0  0  0  0  0  0  0  0  0
    8.4068   -6.0433   33.2447 N   0  0  0  0  0  0  0  0  0  0  0  0
    6.5886   -7.0739   34.4417 N   0  0  0  0  0  0  0  0  0  0  0  0
    5.7612   -6.0040   34.7812 C   0  0  0  0  0  0  0  0  0  0  0  0
    4.1911   -4.5692   37.2020 C   0  0  0  0  0  0  0  0  0  0  0  0
    3.5320   -3.4704   37.7697 C   0  0  0  0  0  0  0  0  0  0  0  0
    3.8409   -2.9584   38.9988 O   0  0  0  0  0  0  0  0  0  0  0  0
    4.7877   -3.6515   39.8020 C   0  0  0  0  0  0  0  0  0  0  0  0
    2.6418   -0.8253   38.9194 H   0  0  0  0  0  0  0  0  0  0  0  0
    1.5062   -2.1535   39.4123 H   0  0  0  0  0  0  0  0  0  0  0  0
    0.8970   -0.6192   38.7958 H   0  0  0  0  0  0  0  0  0  0  0  0
    1.4323   -2.8104   35.2072 H   0  0  0  0  0  0  0  0  0  0  0  0
    2.8773   -5.7669   33.4835 H   0  0  0  0  0  0  0  0  0  0  0  0
    2.3616   -4.1413   33.1638 H   0  0  0  0  0  0  0  0  0  0  0  0
    0.3630   -5.2309   35.0038 H   0  0  0  0  0  0  0  0  0  0  0  0
    0.8243   -6.5467   33.9623 H   0  0  0  0  0  0  0  0  0  0  0  0
    0.4019   -5.0685   32.0583 H   0  0  0  0  0  0  0  0  0  0  0  0
    0.4823   -2.9067   33.1714 H   0  0  0  0  0  0  0  0  0  0  0  0
   -0.8865   -3.4420   34.1633 H   0  0  0  0  0  0  0  0  0  0  0  0
   -0.3127   -0.3878   29.9401 H   0  0  0  0  0  0  0  0  0  0  0  0
   -1.9932   -0.6595   30.3678 H   0  0  0  0  0  0  0  0  0  0  0  0
   -2.2974   -2.1700   28.4407 H   0  0  0  0  0  0  0  0  0  0  0  0
   -1.8211   -0.5683   27.9481 H   0  0  0  0  0  0  0  0  0  0  0  0
    0.3690   -1.2407   27.3668 H   0  0  0  0  0  0  0  0  0  0  0  0
   -1.4823   -3.3241   26.8197 H   0  0  0  0  0  0  0  0  0  0  0  0
    1.4240   -2.4050   28.9943 H   0  0  0  0  0  0  0  0  0  0  0  0
    0.9530   -3.8141   28.0438 H   0  0  0  0  0  0  0  0  0  0  0  0
   -1.1150   -4.0331   29.4689 H   0  0  0  0  0  0  0  0  0  0  0  0
    0.4050   -4.1345   30.3741 H   0  0  0  0  0  0  0  0  0  0  0  0
    3.4043   -7.7978   36.4164 H   0  0  0  0  0  0  0  0  0  0  0  0
    4.9083   -9.6659   35.8091 H   0  0  0  0  0  0  0  0  0  0  0  0
    7.8732   -5.2333   32.9526 H   0  0  0  0  0  0  0  0  0  0  0  0
    9.1800   -6.2490   32.6154 H   0  0  0  0  0  0  0  0  0  0  0  0
    6.1018   -5.0132   34.5066 H   0  0  0  0  0  0  0  0  0  0  0  0
    4.9952   -5.0645   37.7411 H   0  0  0  0  0  0  0  0  0  0  0  0
    4.8507   -3.1340   40.7641 H   0  0  0  0  0  0  0  0  0  0  0  0
    4.4652   -4.6794   39.9982 H   0  0  0  0  0  0  0  0  0  0  0  0
    5.7826   -3.6262   39.3459 H   0  0  0  0  0  0  0  0  0  0  0  0
  1  2  1  0
  2  3  1  0
  3  4  2  0
  4  5  1  0
  5  6  1  0
  6  7  1  0
  7  8  1  0
  8  9  1  0
  9 10  1  0
 10 11  2  0
 10 12  2  0
 10 13  1  0
 13 14  1  0
 14 15  1  0
 15 16  1  0
 16 17  1  0
 16 18  1  0
 18 19  1  0
  5 20  2  0
 20 21  1  0
 21 22  1  0
 22 23  2  0
 23 24  1  0
 24 25  2  0
 25 26  1  0
 26 27  2  0
 27 28  1  0
 27 29  1  0
 29 30  1  0
 20 31  1  0
 31 32  2  0
 32 33  1  0
 33 34  1  0
 32  3  1  0
 19 13  1  0
 30 21  2  0
 29 24  1  0
  1 35  1  0
  1 36  1  0
  1 37  1  0
  4 38  1  0
  6 39  1  0
  6 40  1  0
  7 41  1  0
  7 42  1  0
  8 43  1  0
  9 44  1  0
  9 45  1  0
 14 46  1  0
 14 47  1  0
 15 48  1  0
 15 49  1  0
 16 50  1  0
 17 51  1  0
 18 52  1  0
 18 53  1  0
 19 54  1  0
 19 55  1  0
 22 56  1  0
 23 57  1  0
 28 58  1  0
 28 59  1  0
 30 60  1  0
 31 61  1  0
 34 62  1  0
 34 63  1  0
 34 64  1  0
M  END
>  <Energy>  (936) 
125.03630299706217

>  <compound_id>  (936) 
2221

>  <target_id>  (936) 
1

>  <reference_id>  (936) 
186

>  <inspiration_ids>  (936) 
[41, 186]

>  <energy_score>  (936) 
-146.57830293006228

>  <distance_score>  (936) 
2.415577244348781

>  <path>  (936) 
/opt/xchem-fragalysis-2/maxwin/BulkDock/SCRATCH/505732/C2221-P186/C2221-P186.minimised.mol

>  <scratch_subdir>  (936) 
/opt/xchem-fragalysis-2/maxwin/BulkDock/SCRATCH/505732/C2221-P186

>  <fragmenstein_runtime>  (936) 
9.82364559173584

>  <fragmenstein_outcome>  (936) 
too moved

>  <fragmenstein_mode>  (936) 
expansion

>  <fragmenstein_error>  (936) 


$$$$
C2222-P41
     RDKit          3D

 63 66  0  0  0  0  0  0  0  0999 V2000
    1.8546   -1.6140   38.0080 C   0  0  0  0  0  0  0  0  0  0  0  0
    2.3406   -1.8953   36.6931 O   0  0  0  0  0  0  0  0  0  0  0  0
    2.5994   -3.2243   36.5237 C   0  0  0  0  0  0  0  0  0  0  0  0
    1.8366   -3.8364   35.5376 C   0  0  0  0  0  0  0  0  0  0  0  0
    1.9177   -5.2139   35.3477 C   0  0  0  0  0  0  0  0  0  0  0  0
    1.0202   -5.8768   34.3991 C   0  0  0  0  0  0  0  0  0  0  0  0
   -0.0437   -6.8128   34.7774 C   0  0  0  0  0  0  0  0  0  0  0  0
   -0.8309   -7.4114   33.8674 C   0  0  0  0  0  0  0  0  0  0  0  0
   -0.6066   -7.1606   32.4961 C   0  0  0  0  0  0  0  0  0  0  0  0
   -1.1368   -7.6577   31.4021 N   0  0  0  0  0  0  0  0  0  0  0  0
   -0.5116   -7.0602   30.3343 N   0  0  0  0  0  0  0  0  0  0  0  0
    0.3620   -6.1910   30.7920 C   0  0  0  0  0  0  0  0  0  0  0  0
    1.1575   -5.3635   30.0736 N   0  0  0  0  0  0  0  0  0  0  0  0
    0.3730   -6.2396   32.1670 N   0  0  0  0  0  0  0  0  0  0  0  0
    1.1779   -5.5960   33.0947 C   0  0  0  0  0  0  0  0  0  0  0  0
    2.8049   -5.9669   36.1223 C   0  0  0  0  0  0  0  0  0  0  0  0
    3.6060   -5.3534   37.1019 C   0  0  0  0  0  0  0  0  0  0  0  0
    4.5147   -6.2143   37.9519 C   0  0  0  0  0  0  0  0  0  0  0  0
    5.8631   -6.4698   37.2791 C   0  0  0  0  0  0  0  0  0  0  0  0
    6.5878   -7.5151   38.0205 N   0  0  0  0  0  0  0  0  0  0  0  0
    7.8329   -8.1218   37.3654 S   0  0  0  0  0  0  0  0  0  0  0  0
    8.8416   -8.8444   38.6313 C   0  0  0  0  0  0  0  0  0  0  0  0
    8.7117   -7.4188   36.4555 O   0  0  0  0  0  0  0  0  0  0  0  0
    7.1343   -9.3719   36.4112 N   0  0  0  0  0  0  0  0  0  0  0  0
    7.3624   -9.3575   34.9655 C   0  0  0  0  0  0  0  0  0  0  0  0
    6.3390  -10.1944   34.2098 C   0  0  0  0  0  0  0  0  0  0  0  0
    6.3341  -11.6262   34.7136 C   0  0  0  0  0  0  0  0  0  0  0  0
    5.3318  -12.3769   34.0394 O   0  0  0  0  0  0  0  0  0  0  0  0
    6.0573  -11.6198   36.2093 C   0  0  0  0  0  0  0  0  0  0  0  0
    7.0583  -10.7334   36.9489 C   0  0  0  0  0  0  0  0  0  0  0  0
    3.5323   -3.9620   37.2639 C   0  0  0  0  0  0  0  0  0  0  0  0
    4.3537   -3.3829   38.1949 O   0  0  0  0  0  0  0  0  0  0  0  0
    5.2992   -2.5055   37.5793 C   0  0  0  0  0  0  0  0  0  0  0  0
    1.1555   -2.3803   38.3628 H   0  0  0  0  0  0  0  0  0  0  0  0
    1.3148   -0.6631   37.9642 H   0  0  0  0  0  0  0  0  0  0  0  0
    2.6821   -1.4936   38.7126 H   0  0  0  0  0  0  0  0  0  0  0  0
    1.1218   -3.2390   34.9756 H   0  0  0  0  0  0  0  0  0  0  0  0
   -0.1978   -6.9988   35.8379 H   0  0  0  0  0  0  0  0  0  0  0  0
   -1.6232   -8.0898   34.1560 H   0  0  0  0  0  0  0  0  0  0  0  0
    0.8101   -5.2274   29.1214 H   0  0  0  0  0  0  0  0  0  0  0  0
    1.3673   -4.4532   30.4773 H   0  0  0  0  0  0  0  0  0  0  0  0
    1.9311   -4.9182   32.7120 H   0  0  0  0  0  0  0  0  0  0  0  0
    2.8509   -7.0478   35.9972 H   0  0  0  0  0  0  0  0  0  0  0  0
    4.0025   -7.1664   38.1505 H   0  0  0  0  0  0  0  0  0  0  0  0
    4.6607   -5.7623   38.9412 H   0  0  0  0  0  0  0  0  0  0  0  0
    6.4571   -5.5490   37.2512 H   0  0  0  0  0  0  0  0  0  0  0  0
    5.7028   -6.7902   36.2419 H   0  0  0  0  0  0  0  0  0  0  0  0
    9.5916   -9.4831   38.1605 H   0  0  0  0  0  0  0  0  0  0  0  0
    8.2200   -9.4220   39.3171 H   0  0  0  0  0  0  0  0  0  0  0  0
    9.3388   -8.0358   39.1721 H   0  0  0  0  0  0  0  0  0  0  0  0
    8.3782   -9.7062   34.7418 H   0  0  0  0  0  0  0  0  0  0  0  0
    7.2812   -8.3331   34.5826 H   0  0  0  0  0  0  0  0  0  0  0  0
    5.3367   -9.7633   34.3281 H   0  0  0  0  0  0  0  0  0  0  0  0
    6.5487  -10.1661   33.1363 H   0  0  0  0  0  0  0  0  0  0  0  0
    7.2992  -12.1081   34.5231 H   0  0  0  0  0  0  0  0  0  0  0  0
    5.4583  -12.2653   33.0740 H   0  0  0  0  0  0  0  0  0  0  0  0
    5.0367  -11.2630   36.3981 H   0  0  0  0  0  0  0  0  0  0  0  0
    6.0932  -12.6432   36.6016 H   0  0  0  0  0  0  0  0  0  0  0  0
    6.7470  -10.7001   37.9992 H   0  0  0  0  0  0  0  0  0  0  0  0
    8.0523  -11.1966   36.9224 H   0  0  0  0  0  0  0  0  0  0  0  0
    6.1000   -2.3220   38.3020 H   0  0  0  0  0  0  0  0  0  0  0  0
    4.8432   -1.5421   37.3343 H   0  0  0  0  0  0  0  0  0  0  0  0
    5.7489   -2.9541   36.6859 H   0  0  0  0  0  0  0  0  0  0  0  0
  1  2  1  0
  2  3  1  0
  3  4  2  0
  4  5  1  0
  5  6  1  0
  6  7  1  0
  7  8  2  0
  8  9  1  0
  9 10  2  0
 10 11  1  0
 11 12  2  0
 12 13  1  0
 12 14  1  0
 14 15  1  0
  5 16  2  0
 16 17  1  0
 17 18  1  0
 18 19  1  0
 19 20  1  0
 20 21  2  0
 21 22  1  0
 21 23  2  0
 21 24  1  0
 24 25  1  0
 25 26  1  0
 26 27  1  0
 27 28  1  0
 27 29  1  0
 29 30  1  0
 17 31  2  0
 31 32  1  0
 32 33  1  0
 31  3  1  0
 15  6  2  0
 30 24  1  0
 14  9  1  0
  1 34  1  0
  1 35  1  0
  1 36  1  0
  4 37  1  0
  7 38  1  0
  8 39  1  0
 13 40  1  0
 13 41  1  0
 15 42  1  0
 16 43  1  0
 18 44  1  0
 18 45  1  0
 19 46  1  0
 19 47  1  0
 22 48  1  0
 22 49  1  0
 22 50  1  0
 25 51  1  0
 25 52  1  0
 26 53  1  0
 26 54  1  0
 27 55  1  0
 28 56  1  0
 29 57  1  0
 29 58  1  0
 30 59  1  0
 30 60  1  0
 33 61  1  0
 33 62  1  0
 33 63  1  0
M  END
>  <Energy>  (937) 
-7.2902634339874366

>  <compound_id>  (937) 
2222

>  <target_id>  (937) 
1

>  <reference_id>  (937) 
41

>  <inspiration_ids>  (937) 
[41, 187]

>  <energy_score>  (937) 
-94.50940865565173

>  <distance_score>  (937) 
2.32983434295416

>  <path>  (937) 
/opt/xchem-fragalysis-2/maxwin/BulkDock/SCRATCH/505732/C2222-P41/C2222-P41.minimised.mol

>  <scratch_subdir>  (937) 
/opt/xchem-fragalysis-2/maxwin/BulkDock/SCRATCH/505732/C2222-P41

>  <fragmenstein_runtime>  (937) 
7.581827640533447

>  <fragmenstein_outcome>  (937) 
too moved

>  <fragmenstein_mode>  (937) 
expansion

>  <fragmenstein_error>  (937) 


$$$$
C2222-P187
     RDKit          3D

 63 66  0  0  0  0  0  0  0  0999 V2000
    2.1684   -1.2150   37.3543 C   0  0  0  0  0  0  0  0  0  0  0  0
    1.9111   -2.5869   37.6182 O   0  0  0  0  0  0  0  0  0  0  0  0
    1.5441   -3.3807   36.5630 C   0  0  0  0  0  0  0  0  0  0  0  0
    1.4480   -2.9401   35.2382 C   0  0  0  0  0  0  0  0  0  0  0  0
    1.0841   -3.8458   34.2478 C   0  0  0  0  0  0  0  0  0  0  0  0
    0.9585   -3.5395   32.8242 C   0  0  0  0  0  0  0  0  0  0  0  0
   -0.3302   -3.3256   32.1611 C   0  0  0  0  0  0  0  0  0  0  0  0
   -0.4699   -3.4711   30.8297 C   0  0  0  0  0  0  0  0  0  0  0  0
    0.6567   -3.8432   30.0513 C   0  0  0  0  0  0  0  0  0  0  0  0
    0.8051   -4.1537   28.7843 N   0  0  0  0  0  0  0  0  0  0  0  0
    2.1270   -4.4748   28.5734 N   0  0  0  0  0  0  0  0  0  0  0  0
    2.7695   -4.3146   29.7064 C   0  0  0  0  0  0  0  0  0  0  0  0
    4.0942   -4.4730   29.9222 N   0  0  0  0  0  0  0  0  0  0  0  0
    1.8767   -3.9533   30.6951 N   0  0  0  0  0  0  0  0  0  0  0  0
    2.0391   -3.8118   32.0667 C   0  0  0  0  0  0  0  0  0  0  0  0
    0.8329   -5.1817   34.5690 C   0  0  0  0  0  0  0  0  0  0  0  0
    0.9131   -5.6563   35.8733 C   0  0  0  0  0  0  0  0  0  0  0  0
    0.6591   -7.1198   36.1739 C   0  0  0  0  0  0  0  0  0  0  0  0
   -0.0011   -7.9073   35.0228 C   0  0  0  0  0  0  0  0  0  0  0  0
   -0.3603   -9.2436   35.4692 N   0  0  0  0  0  0  0  0  0  0  0  0
    0.4813  -10.8835   34.9503 S   0  0  0  0  0  0  0  0  0  0  0  0
    3.0889  -11.4649   35.4826 C   0  0  0  0  0  0  0  0  0  0  0  0
    1.8871   -9.6305   34.8991 O   0  0  0  0  0  0  0  0  0  0  0  0
    0.4607  -12.9307   33.4853 N   0  0  0  0  0  0  0  0  0  0  0  0
    0.9906  -12.3814   31.6438 C   0  0  0  0  0  0  0  0  0  0  0  0
   -0.6924  -11.4772   30.6596 C   0  0  0  0  0  0  0  0  0  0  0  0
   -2.3889  -12.5927   30.1060 C   0  0  0  0  0  0  0  0  0  0  0  0
   -2.2005  -13.1979   28.8444 O   0  0  0  0  0  0  0  0  0  0  0  0
   -2.2906  -14.1699   31.4632 C   0  0  0  0  0  0  0  0  0  0  0  0
   -0.8515  -14.1810   32.8944 C   0  0  0  0  0  0  0  0  0  0  0  0
    1.2577   -4.7324   36.8713 C   0  0  0  0  0  0  0  0  0  0  0  0
    1.3751   -5.1892   38.1638 O   0  0  0  0  0  0  0  0  0  0  0  0
    0.2001   -4.8639   38.9095 C   0  0  0  0  0  0  0  0  0  0  0  0
    3.0220   -1.0965   36.6789 H   0  0  0  0  0  0  0  0  0  0  0  0
    2.4267   -0.7348   38.3030 H   0  0  0  0  0  0  0  0  0  0  0  0
    1.2780   -0.7142   36.9601 H   0  0  0  0  0  0  0  0  0  0  0  0
    1.6491   -1.9129   34.9578 H   0  0  0  0  0  0  0  0  0  0  0  0
   -1.1803   -3.0544   32.7837 H   0  0  0  0  0  0  0  0  0  0  0  0
   -1.4159   -3.3055   30.3263 H   0  0  0  0  0  0  0  0  0  0  0  0
    4.6492   -4.4614   29.0685 H   0  0  0  0  0  0  0  0  0  0  0  0
    4.5294   -3.8914   30.6335 H   0  0  0  0  0  0  0  0  0  0  0  0
    3.0120   -4.0582   32.4748 H   0  0  0  0  0  0  0  0  0  0  0  0
    0.5651   -5.8445   33.7506 H   0  0  0  0  0  0  0  0  0  0  0  0
    0.0069   -7.1863   37.0542 H   0  0  0  0  0  0  0  0  0  0  0  0
    1.6157   -7.5811   36.4472 H   0  0  0  0  0  0  0  0  0  0  0  0
    0.5912   -7.8991   34.1055 H   0  0  0  0  0  0  0  0  0  0  0  0
   -0.9444   -7.4076   34.7625 H   0  0  0  0  0  0  0  0  0  0  0  0
    3.4266  -11.9990   36.4981 H   0  0  0  0  0  0  0  0  0  0  0  0
    3.6771  -12.3129   34.8906 H   0  0  0  0  0  0  0  0  0  0  0  0
    3.7891  -10.5237   35.3975 H   0  0  0  0  0  0  0  0  0  0  0  0
    1.8164  -12.7792   30.9924 H   0  0  0  0  0  0  0  0  0  0  0  0
    1.9804  -11.9986   31.8980 H   0  0  0  0  0  0  0  0  0  0  0  0
   -0.4762  -10.5842   30.0518 H   0  0  0  0  0  0  0  0  0  0  0  0
   -1.1360  -10.7121   31.3286 H   0  0  0  0  0  0  0  0  0  0  0  0
   -3.2949  -12.0407   29.8299 H   0  0  0  0  0  0  0  0  0  0  0  0
   -1.8266  -14.0720   29.0346 H   0  0  0  0  0  0  0  0  0  0  0  0
   -3.2052  -14.4084   31.9977 H   0  0  0  0  0  0  0  0  0  0  0  0
   -2.0818  -15.0753   30.8599 H   0  0  0  0  0  0  0  0  0  0  0  0
   -0.7364  -13.3454   32.3522 H   0  0  0  0  0  0  0  0  0  0  0  0
   -1.3338  -14.4405   33.8135 H   0  0  0  0  0  0  0  0  0  0  0  0
    0.2459   -5.4092   39.8570 H   0  0  0  0  0  0  0  0  0  0  0  0
   -0.7129   -5.1725   38.3873 H   0  0  0  0  0  0  0  0  0  0  0  0
    0.1609   -3.7943   39.1384 H   0  0  0  0  0  0  0  0  0  0  0  0
  1  2  1  0
  2  3  1  0
  3  4  2  0
  4  5  1  0
  5  6  1  0
  6  7  1  0
  7  8  2  0
  8  9  1  0
  9 10  2  0
 10 11  1  0
 11 12  2  0
 12 13  1  0
 12 14  1  0
 14 15  1  0
  5 16  2  0
 16 17  1  0
 17 18  1  0
 18 19  1  0
 19 20  1  0
 20 21  2  0
 21 22  1  0
 21 23  2  0
 21 24  1  0
 24 25  1  0
 25 26  1  0
 26 27  1  0
 27 28  1  0
 27 29  1  0
 29 30  1  0
 17 31  2  0
 31 32  1  0
 32 33  1  0
 31  3  1  0
 15  6  2  0
 30 24  1  0
 14  9  1  0
  1 34  1  0
  1 35  1  0
  1 36  1  0
  4 37  1  0
  7 38  1  0
  8 39  1  0
 13 40  1  0
 13 41  1  0
 15 42  1  0
 16 43  1  0
 18 44  1  0
 18 45  1  0
 19 46  1  0
 19 47  1  0
 22 48  1  0
 22 49  1  0
 22 50  1  0
 25 51  1  0
 25 52  1  0
 26 53  1  0
 26 54  1  0
 27 55  1  0
 28 56  1  0
 29 57  1  0
 29 58  1  0
 30 59  1  0
 30 60  1  0
 33 61  1  0
 33 62  1  0
 33 63  1  0
M  END
>  <Energy>  (938) 
1420.7066888778177

>  <compound_id>  (938) 
2222

>  <target_id>  (938) 
1

>  <reference_id>  (938) 
187

>  <inspiration_ids>  (938) 
[41, 187]

>  <energy_score>  (938) 
1329.8884681977484

>  <distance_score>  (938) 
3.7305776901536536

>  <path>  (938) 
/opt/xchem-fragalysis-2/maxwin/BulkDock/SCRATCH/505732/C2222-P187/C2222-P187.minimised.mol

>  <scratch_subdir>  (938) 
/opt/xchem-fragalysis-2/maxwin/BulkDock/SCRATCH/505732/C2222-P187

>  <fragmenstein_runtime>  (938) 
9.48401165008545

>  <fragmenstein_outcome>  (938) 
too moved

>  <fragmenstein_mode>  (938) 
expansion

>  <fragmenstein_error>  (938) 


$$$$
C2225-P41
     RDKit          3D

 62 65  0  0  0  0  0  0  0  0999 V2000
    1.6889   -4.7830   40.9991 C   0  0  0  0  0  0  0  0  0  0  0  0
    1.9377   -4.9484   39.5959 N   0  0  0  0  0  0  0  0  0  0  0  0
    3.1150   -4.7287   38.8228 C   0  0  0  0  0  0  0  0  0  0  0  0
    4.1761   -4.2760   39.1281 O   0  0  0  0  0  0  0  0  0  0  0  0
    2.9129   -5.1048   37.4008 C   0  0  0  0  0  0  0  0  0  0  0  0
    2.7466   -6.4619   37.0973 C   0  0  0  0  0  0  0  0  0  0  0  0
    2.3901   -6.8443   35.8033 C   0  0  0  0  0  0  0  0  0  0  0  0
    2.2371   -5.8766   34.8021 C   0  0  0  0  0  0  0  0  0  0  0  0
    1.6291   -6.1657   33.4947 C   0  0  0  0  0  0  0  0  0  0  0  0
    2.0931   -5.5843   32.2258 C   0  0  0  0  0  0  0  0  0  0  0  0
    1.4403   -5.7847   31.0654 C   0  0  0  0  0  0  0  0  0  0  0  0
    0.2909   -6.6128   31.0576 C   0  0  0  0  0  0  0  0  0  0  0  0
   -0.4779   -7.0644   30.0965 N   0  0  0  0  0  0  0  0  0  0  0  0
   -1.4841   -7.7980   30.6700 N   0  0  0  0  0  0  0  0  0  0  0  0
   -1.2967   -7.8053   31.9674 C   0  0  0  0  0  0  0  0  0  0  0  0
   -2.0773   -8.3808   32.8953 N   0  0  0  0  0  0  0  0  0  0  0  0
   -0.1575   -7.1008   32.2701 N   0  0  0  0  0  0  0  0  0  0  0  0
    0.4817   -6.8741   33.4778 C   0  0  0  0  0  0  0  0  0  0  0  0
    2.5250   -4.5432   35.0934 C   0  0  0  0  0  0  0  0  0  0  0  0
    2.8061   -4.1299   36.3991 C   0  0  0  0  0  0  0  0  0  0  0  0
    2.7814   -2.6445   36.6713 C   0  0  0  0  0  0  0  0  0  0  0  0
    1.3426   -2.1308   36.8317 C   0  0  0  0  0  0  0  0  0  0  0  0
    0.6422   -2.0641   35.5326 N   0  0  0  0  0  0  0  0  0  0  0  0
   -0.6051   -2.9247   35.2812 S   0  0  0  0  0  0  0  0  0  0  0  0
   -0.8102   -3.0006   33.5149 C   0  0  0  0  0  0  0  0  0  0  0  0
   -0.8308   -4.2416   35.8392 O   0  0  0  0  0  0  0  0  0  0  0  0
   -1.8748   -1.9632   35.9244 N   0  0  0  0  0  0  0  0  0  0  0  0
   -2.2828   -0.7597   35.1868 C   0  0  0  0  0  0  0  0  0  0  0  0
   -3.2257    0.1763   35.9432 C   0  0  0  0  0  0  0  0  0  0  0  0
   -4.1709   -0.6254   36.8191 C   0  0  0  0  0  0  0  0  0  0  0  0
   -5.0668    0.2592   37.4826 O   0  0  0  0  0  0  0  0  0  0  0  0
   -3.3839   -1.4403   37.8418 C   0  0  0  0  0  0  0  0  0  0  0  0
   -1.9678   -1.7801   37.3702 C   0  0  0  0  0  0  0  0  0  0  0  0
    2.5954   -4.4339   41.4986 H   0  0  0  0  0  0  0  0  0  0  0  0
    0.8858   -4.0534   41.1246 H   0  0  0  0  0  0  0  0  0  0  0  0
    1.3784   -5.7453   41.4119 H   0  0  0  0  0  0  0  0  0  0  0  0
    1.1957   -5.2742   38.9836 H   0  0  0  0  0  0  0  0  0  0  0  0
    2.8444   -7.2125   37.8785 H   0  0  0  0  0  0  0  0  0  0  0  0
    2.1932   -7.8942   35.6052 H   0  0  0  0  0  0  0  0  0  0  0  0
    2.9808   -4.9562   32.2457 H   0  0  0  0  0  0  0  0  0  0  0  0
    1.7743   -5.3373   30.1357 H   0  0  0  0  0  0  0  0  0  0  0  0
   -2.8198   -8.9736   32.5132 H   0  0  0  0  0  0  0  0  0  0  0  0
   -1.6624   -8.8028   33.7296 H   0  0  0  0  0  0  0  0  0  0  0  0
    0.0022   -7.2721   34.3645 H   0  0  0  0  0  0  0  0  0  0  0  0
    2.3968   -3.7769   34.3286 H   0  0  0  0  0  0  0  0  0  0  0  0
    3.2956   -2.1135   35.8591 H   0  0  0  0  0  0  0  0  0  0  0  0
    3.3510   -2.4122   37.5770 H   0  0  0  0  0  0  0  0  0  0  0  0
    1.3844   -1.1098   37.2294 H   0  0  0  0  0  0  0  0  0  0  0  0
    0.7972   -2.7349   37.5653 H   0  0  0  0  0  0  0  0  0  0  0  0
   -1.8127   -3.3357   33.2668 H   0  0  0  0  0  0  0  0  0  0  0  0
   -0.0805   -3.7029   33.1145 H   0  0  0  0  0  0  0  0  0  0  0  0
   -0.6376   -2.0098   33.0891 H   0  0  0  0  0  0  0  0  0  0  0  0
   -2.7852   -1.0817   34.2669 H   0  0  0  0  0  0  0  0  0  0  0  0
   -1.4045   -0.1785   34.8814 H   0  0  0  0  0  0  0  0  0  0  0  0
   -3.7892    0.7993   35.2383 H   0  0  0  0  0  0  0  0  0  0  0  0
   -2.6509    0.8764   36.5642 H   0  0  0  0  0  0  0  0  0  0  0  0
   -4.7725   -1.2924   36.1898 H   0  0  0  0  0  0  0  0  0  0  0  0
   -5.6459   -0.2773   38.0509 H   0  0  0  0  0  0  0  0  0  0  0  0
   -3.9398   -2.3594   38.0576 H   0  0  0  0  0  0  0  0  0  0  0  0
   -3.3220   -0.9064   38.7986 H   0  0  0  0  0  0  0  0  0  0  0  0
   -1.6557   -2.6899   37.8967 H   0  0  0  0  0  0  0  0  0  0  0  0
   -1.2754   -0.9904   37.6888 H   0  0  0  0  0  0  0  0  0  0  0  0
  1  2  1  0
  2  3  1  0
  3  4  2  0
  3  5  1  0
  5  6  2  0
  6  7  1  0
  7  8  2  0
  8  9  1  0
  9 10  1  0
 10 11  2  0
 11 12  1  0
 12 13  2  0
 13 14  1  0
 14 15  2  0
 15 16  1  0
 15 17  1  0
 17 18  1  0
  8 19  1  0
 19 20  2  0
 20 21  1  0
 21 22  1  0
 22 23  1  0
 23 24  2  0
 24 25  1  0
 24 26  2  0
 24 27  1  0
 27 28  1  0
 28 29  1  0
 29 30  1  0
 30 31  1  0
 30 32  1  0
 32 33  1  0
 20  5  1  0
 33 27  1  0
 18  9  2  0
 17 12  1  0
  1 34  1  0
  1 35  1  0
  1 36  1  0
  2 37  1  0
  6 38  1  0
  7 39  1  0
 10 40  1  0
 11 41  1  0
 16 42  1  0
 16 43  1  0
 18 44  1  0
 19 45  1  0
 21 46  1  0
 21 47  1  0
 22 48  1  0
 22 49  1  0
 25 50  1  0
 25 51  1  0
 25 52  1  0
 28 53  1  0
 28 54  1  0
 29 55  1  0
 29 56  1  0
 30 57  1  0
 31 58  1  0
 32 59  1  0
 32 60  1  0
 33 61  1  0
 33 62  1  0
M  END
>  <Energy>  (939) 
-17.735791885359149

>  <compound_id>  (939) 
2225

>  <target_id>  (939) 
1

>  <reference_id>  (939) 
41

>  <inspiration_ids>  (939) 
[41, 190]

>  <energy_score>  (939) 
-84.59080867742941

>  <distance_score>  (939) 
2.9328581985791775

>  <path>  (939) 
/opt/xchem-fragalysis-2/maxwin/BulkDock/SCRATCH/505732/C2225-P41/C2225-P41.minimised.mol

>  <scratch_subdir>  (939) 
/opt/xchem-fragalysis-2/maxwin/BulkDock/SCRATCH/505732/C2225-P41

>  <fragmenstein_runtime>  (939) 
15.737444639205933

>  <fragmenstein_outcome>  (939) 
too moved

>  <fragmenstein_mode>  (939) 
expansion

>  <fragmenstein_error>  (939) 


$$$$
C2225-P190
     RDKit          3D

 62 65  0  0  0  0  0  0  0  0999 V2000
   -2.5054   -2.8019   40.7717 C   0  0  0  0  0  0  0  0  0  0  0  0
   -1.6215   -3.3726   39.7987 N   0  0  0  0  0  0  0  0  0  0  0  0
   -1.6592   -3.3202   38.2644 C   0  0  0  0  0  0  0  0  0  0  0  0
   -2.4550   -2.8709   37.5442 O   0  0  0  0  0  0  0  0  0  0  0  0
   -0.4803   -4.0256   37.6967 C   0  0  0  0  0  0  0  0  0  0  0  0
   -0.3306   -5.3970   37.9367 C   0  0  0  0  0  0  0  0  0  0  0  0
    0.6166   -6.1241   37.2076 C   0  0  0  0  0  0  0  0  0  0  0  0
    1.5198   -5.4400   36.3892 C   0  0  0  0  0  0  0  0  0  0  0  0
    2.4444   -6.0169   35.4033 C   0  0  0  0  0  0  0  0  0  0  0  0
    3.0073   -5.2000   34.2962 C   0  0  0  0  0  0  0  0  0  0  0  0
    4.2513   -5.3756   33.8439 C   0  0  0  0  0  0  0  0  0  0  0  0
    4.9978   -6.4388   34.3933 C   0  0  0  0  0  0  0  0  0  0  0  0
    6.2441   -6.8231   34.2216 N   0  0  0  0  0  0  0  0  0  0  0  0
    6.4138   -8.0150   34.8902 N   0  0  0  0  0  0  0  0  0  0  0  0
    5.2889   -8.3168   35.4970 C   0  0  0  0  0  0  0  0  0  0  0  0
    5.0554   -9.3802   36.3014 N   0  0  0  0  0  0  0  0  0  0  0  0
    4.3324   -7.3593   35.2002 N   0  0  0  0  0  0  0  0  0  0  0  0
    3.0425   -7.1826   35.6889 C   0  0  0  0  0  0  0  0  0  0  0  0
    1.5355   -4.0520   36.4096 C   0  0  0  0  0  0  0  0  0  0  0  0
    0.4025   -3.3819   36.8250 C   0  0  0  0  0  0  0  0  0  0  0  0
    0.0231   -2.2102   35.9462 C   0  0  0  0  0  0  0  0  0  0  0  0
   -0.7674   -2.7465   34.7316 C   0  0  0  0  0  0  0  0  0  0  0  0
    0.0496   -3.6927   33.9507 N   0  0  0  0  0  0  0  0  0  0  0  0
   -0.6531   -4.7791   33.1585 S   0  0  0  0  0  0  0  0  0  0  0  0
   -1.0423   -6.1686   34.1984 C   0  0  0  0  0  0  0  0  0  0  0  0
   -1.7435   -4.5298   32.2407 O   0  0  0  0  0  0  0  0  0  0  0  0
    0.6193   -5.2081   32.1403 N   0  0  0  0  0  0  0  0  0  0  0  0
    1.1322   -6.5587   32.0834 C   0  0  0  0  0  0  0  0  0  0  0  0
    0.2334   -7.4938   31.2959 C   0  0  0  0  0  0  0  0  0  0  0  0
   -0.6125   -6.7187   30.3339 C   0  0  0  0  0  0  0  0  0  0  0  0
   -1.0771   -7.6029   29.3295 O   0  0  0  0  0  0  0  0  0  0  0  0
    0.1517   -5.5198   29.7596 C   0  0  0  0  0  0  0  0  0  0  0  0
    0.6917   -4.5804   30.8281 C   0  0  0  0  0  0  0  0  0  0  0  0
   -2.9185   -3.6088   41.3808 H   0  0  0  0  0  0  0  0  0  0  0  0
   -1.9331   -2.1193   41.4034 H   0  0  0  0  0  0  0  0  0  0  0  0
   -3.3091   -2.2630   40.2654 H   0  0  0  0  0  0  0  0  0  0  0  0
   -0.8183   -3.9124   40.0990 H   0  0  0  0  0  0  0  0  0  0  0  0
   -1.0276   -5.9130   38.5894 H   0  0  0  0  0  0  0  0  0  0  0  0
    0.6171   -7.2082   37.2751 H   0  0  0  0  0  0  0  0  0  0  0  0
    2.4230   -4.3846   33.8822 H   0  0  0  0  0  0  0  0  0  0  0  0
    4.6908   -4.7396   33.0846 H   0  0  0  0  0  0  0  0  0  0  0  0
    4.5729   -9.1970   37.1777 H   0  0  0  0  0  0  0  0  0  0  0  0
    5.9076   -9.9069   36.4992 H   0  0  0  0  0  0  0  0  0  0  0  0
    2.7450   -7.8532   36.4842 H   0  0  0  0  0  0  0  0  0  0  0  0
    2.2587   -3.4800   35.8313 H   0  0  0  0  0  0  0  0  0  0  0  0
    0.9180   -1.6673   35.6151 H   0  0  0  0  0  0  0  0  0  0  0  0
   -0.5772   -1.4845   36.5050 H   0  0  0  0  0  0  0  0  0  0  0  0
   -1.0581   -1.9091   34.0875 H   0  0  0  0  0  0  0  0  0  0  0  0
   -1.6861   -3.2192   35.0855 H   0  0  0  0  0  0  0  0  0  0  0  0
   -1.6708   -6.8614   33.6391 H   0  0  0  0  0  0  0  0  0  0  0  0
   -1.5587   -5.8242   35.0925 H   0  0  0  0  0  0  0  0  0  0  0  0
   -0.1411   -6.6858   34.5097 H   0  0  0  0  0  0  0  0  0  0  0  0
    1.3172   -6.9885   33.0672 H   0  0  0  0  0  0  0  0  0  0  0  0
    2.1176   -6.4764   31.6277 H   0  0  0  0  0  0  0  0  0  0  0  0
   -0.4110   -8.0760   31.9660 H   0  0  0  0  0  0  0  0  0  0  0  0
    0.7933   -8.2215   30.7154 H   0  0  0  0  0  0  0  0  0  0  0  0
   -1.4798   -6.4212   30.9118 H   0  0  0  0  0  0  0  0  0  0  0  0
   -1.7158   -7.1028   28.7828 H   0  0  0  0  0  0  0  0  0  0  0  0
   -0.4717   -4.9547   29.0597 H   0  0  0  0  0  0  0  0  0  0  0  0
    1.0151   -5.8958   29.1994 H   0  0  0  0  0  0  0  0  0  0  0  0
    0.1560   -3.6236   30.8026 H   0  0  0  0  0  0  0  0  0  0  0  0
    1.7339   -4.3234   30.5989 H   0  0  0  0  0  0  0  0  0  0  0  0
  1  2  1  0
  2  3  1  0
  3  4  2  0
  3  5  1  0
  5  6  2  0
  6  7  1  0
  7  8  2  0
  8  9  1  0
  9 10  1  0
 10 11  2  0
 11 12  1  0
 12 13  2  0
 13 14  1  0
 14 15  2  0
 15 16  1  0
 15 17  1  0
 17 18  1  0
  8 19  1  0
 19 20  2  0
 20 21  1  0
 21 22  1  0
 22 23  1  0
 23 24  2  0
 24 25  1  0
 24 26  2  0
 24 27  1  0
 27 28  1  0
 28 29  1  0
 29 30  1  0
 30 31  1  0
 30 32  1  0
 32 33  1  0
 20  5  1  0
 33 27  1  0
 18  9  2  0
 17 12  1  0
  1 34  1  0
  1 35  1  0
  1 36  1  0
  2 37  1  0
  6 38  1  0
  7 39  1  0
 10 40  1  0
 11 41  1  0
 16 42  1  0
 16 43  1  0
 18 44  1  0
 19 45  1  0
 21 46  1  0
 21 47  1  0
 22 48  1  0
 22 49  1  0
 25 50  1  0
 25 51  1  0
 25 52  1  0
 28 53  1  0
 28 54  1  0
 29 55  1  0
 29 56  1  0
 30 57  1  0
 31 58  1  0
 32 59  1  0
 32 60  1  0
 33 61  1  0
 33 62  1  0
M  END
>  <Energy>  (940) 
35.513567165767441

>  <compound_id>  (940) 
2225

>  <target_id>  (940) 
1

>  <reference_id>  (940) 
190

>  <inspiration_ids>  (940) 
[41, 190]

>  <energy_score>  (940) 
-29.274417870430426

>  <distance_score>  (940) 
4.064403095095715

>  <path>  (940) 
/opt/xchem-fragalysis-2/maxwin/BulkDock/SCRATCH/505732/C2225-P190/C2225-P190.minimised.mol

>  <scratch_subdir>  (940) 
/opt/xchem-fragalysis-2/maxwin/BulkDock/SCRATCH/505732/C2225-P190

>  <fragmenstein_runtime>  (940) 
12.024438381195068

>  <fragmenstein_outcome>  (940) 
too moved

>  <fragmenstein_mode>  (940) 
expansion

>  <fragmenstein_error>  (940) 


$$$$
C2228-P41
     RDKit          3D

 62 66  0  0  0  0  0  0  0  0999 V2000
   -2.8451   -2.9334   31.4206 O   0  0  0  0  0  0  0  0  0  0  0  0
   -1.6298   -2.1734   31.6132 S   0  0  0  0  0  0  0  0  0  0  0  0
   -1.3254   -1.5840   32.9023 O   0  0  0  0  0  0  0  0  0  0  0  0
   -1.4919   -0.8379   30.3432 C   0  0  0  0  0  0  0  0  0  0  0  0
   -0.1164   -0.3712   30.0815 N   0  0  0  0  0  0  0  0  0  0  0  0
   -0.0589    0.7933   29.2081 C   0  0  0  0  0  0  0  0  0  0  0  0
    1.3741    1.0240   28.6725 C   0  0  0  0  0  0  0  0  0  0  0  0
    2.4698    0.9548   29.7224 C   0  0  0  0  0  0  0  0  0  0  0  0
    3.2558   -0.2834   29.7985 C   0  0  0  0  0  0  0  0  0  0  0  0
    4.2078   -0.4479   30.7448 C   0  0  0  0  0  0  0  0  0  0  0  0
    4.9608   -1.6146   30.8839 N   0  0  0  0  0  0  0  0  0  0  0  0
    4.7684   -2.5718   31.8318 C   0  0  0  0  0  0  0  0  0  0  0  0
    5.0481   -3.8544   31.7497 N   0  0  0  0  0  0  0  0  0  0  0  0
    4.5143   -4.4841   32.8547 N   0  0  0  0  0  0  0  0  0  0  0  0
    3.9336   -3.5717   33.6124 C   0  0  0  0  0  0  0  0  0  0  0  0
    3.0729   -3.7702   34.7702 C   0  0  0  0  0  0  0  0  0  0  0  0
    2.3559   -4.9652   34.9020 C   0  0  0  0  0  0  0  0  0  0  0  0
    1.4052   -5.1272   35.9087 C   0  0  0  0  0  0  0  0  0  0  0  0
    1.2067   -4.1079   36.8346 C   0  0  0  0  0  0  0  0  0  0  0  0
    1.9555   -2.9347   36.7522 C   0  0  0  0  0  0  0  0  0  0  0  0
    2.8804   -2.7618   35.7211 C   0  0  0  0  0  0  0  0  0  0  0  0
    4.1354   -2.3445   33.0230 N   0  0  0  0  0  0  0  0  0  0  0  0
    4.4495    0.6479   31.5955 N   0  0  0  0  0  0  0  0  0  0  0  0
    5.3744    0.8342   32.5888 C   0  0  0  0  0  0  0  0  0  0  0  0
    5.1856    1.9943   33.1743 N   0  0  0  0  0  0  0  0  0  0  0  0
    4.1513    2.6282   32.5226 N   0  0  0  0  0  0  0  0  0  0  0  0
    3.7328    1.8349   31.5601 C   0  0  0  0  0  0  0  0  0  0  0  0
    2.7207    1.9728   30.5739 C   0  0  0  0  0  0  0  0  0  0  0  0
   -0.3439   -3.2155   31.2407 N   0  0  0  0  0  0  0  0  0  0  0  0
   -0.1909   -3.6502   29.8308 C   0  0  0  0  0  0  0  0  0  0  0  0
    1.2637   -4.0374   29.6052 C   0  0  0  0  0  0  0  0  0  0  0  0
    1.8645   -4.6566   30.8548 C   0  0  0  0  0  0  0  0  0  0  0  0
    2.9284   -5.5164   30.4870 O   0  0  0  0  0  0  0  0  0  0  0  0
    0.8012   -5.3826   31.6672 C   0  0  0  0  0  0  0  0  0  0  0  0
   -0.1770   -4.3407   32.2112 C   0  0  0  0  0  0  0  0  0  0  0  0
   -1.9434   -1.2306   29.4278 H   0  0  0  0  0  0  0  0  0  0  0  0
   -2.1151   -0.0235   30.7249 H   0  0  0  0  0  0  0  0  0  0  0  0
    0.3251   -0.1610   30.9790 H   0  0  0  0  0  0  0  0  0  0  0  0
   -0.7308    0.6750   28.3498 H   0  0  0  0  0  0  0  0  0  0  0  0
   -0.3744    1.6823   29.7608 H   0  0  0  0  0  0  0  0  0  0  0  0
    1.4067    2.0059   28.1821 H   0  0  0  0  0  0  0  0  0  0  0  0
    1.5771    0.2949   27.8766 H   0  0  0  0  0  0  0  0  0  0  0  0
    3.0186   -1.0757   29.0945 H   0  0  0  0  0  0  0  0  0  0  0  0
    5.1332   -2.0503   29.9753 H   0  0  0  0  0  0  0  0  0  0  0  0
    2.5311   -5.7800   34.2048 H   0  0  0  0  0  0  0  0  0  0  0  0
    0.8371   -6.0502   35.9861 H   0  0  0  0  0  0  0  0  0  0  0  0
    0.4748   -4.2294   37.6302 H   0  0  0  0  0  0  0  0  0  0  0  0
    1.8039   -2.1457   37.4857 H   0  0  0  0  0  0  0  0  0  0  0  0
    3.4357   -1.8282   35.6818 H   0  0  0  0  0  0  0  0  0  0  0  0
    3.7339   -1.4735   33.3297 H   0  0  0  0  0  0  0  0  0  0  0  0
    6.1385    0.1116   32.8357 H   0  0  0  0  0  0  0  0  0  0  0  0
    2.1589    2.9011   30.5427 H   0  0  0  0  0  0  0  0  0  0  0  0
   -0.8276   -4.5113   29.6366 H   0  0  0  0  0  0  0  0  0  0  0  0
   -0.4655   -2.8817   29.1079 H   0  0  0  0  0  0  0  0  0  0  0  0
    1.8492   -3.1489   29.3413 H   0  0  0  0  0  0  0  0  0  0  0  0
    1.3519   -4.7044   28.7424 H   0  0  0  0  0  0  0  0  0  0  0  0
    2.2726   -3.8467   31.4624 H   0  0  0  0  0  0  0  0  0  0  0  0
    3.7135   -5.1857   30.9822 H   0  0  0  0  0  0  0  0  0  0  0  0
    0.2788   -6.1084   31.0297 H   0  0  0  0  0  0  0  0  0  0  0  0
    1.2358   -5.9791   32.4714 H   0  0  0  0  0  0  0  0  0  0  0  0
    0.2165   -3.9199   33.1419 H   0  0  0  0  0  0  0  0  0  0  0  0
   -1.1314   -4.8246   32.4312 H   0  0  0  0  0  0  0  0  0  0  0  0
  1  2  2  0
  2  3  2  0
  2  4  1  0
  4  5  1  0
  5  6  1  0
  6  7  1  0
  7  8  1  0
  8  9  1  0
  9 10  2  0
 10 11  1  0
 11 12  1  0
 12 13  2  0
 13 14  1  0
 14 15  2  0
 15 16  1  0
 16 17  2  0
 17 18  1  0
 18 19  2  0
 19 20  1  0
 20 21  2  0
 15 22  1  0
 10 23  1  0
 23 24  1  0
 24 25  2  0
 25 26  1  0
 26 27  2  0
 27 28  1  0
  2 29  1  0
 29 30  1  0
 30 31  1  0
 31 32  1  0
 32 33  1  0
 32 34  1  0
 34 35  1  0
 28  8  2  0
 35 29  1  0
 22 12  1  0
 27 23  1  0
 21 16  1  0
  4 36  1  0
  4 37  1  0
  5 38  1  0
  6 39  1  0
  6 40  1  0
  7 41  1  0
  7 42  1  0
  9 43  1  0
 11 44  1  0
 17 45  1  0
 18 46  1  0
 19 47  1  0
 20 48  1  0
 21 49  1  0
 22 50  1  0
 24 51  1  0
 28 52  1  0
 30 53  1  0
 30 54  1  0
 31 55  1  0
 31 56  1  0
 32 57  1  0
 33 58  1  0
 34 59  1  0
 34 60  1  0
 35 61  1  0
 35 62  1  0
M  END
>  <Energy>  (941) 
83.863917515075897

>  <compound_id>  (941) 
2228

>  <target_id>  (941) 
1

>  <reference_id>  (941) 
41

>  <inspiration_ids>  (941) 
[41, 196]

>  <energy_score>  (941) 
-77.75025519029785

>  <distance_score>  (941) 
1.5016869167646798

>  <path>  (941) 
/opt/xchem-fragalysis-2/maxwin/BulkDock/SCRATCH/505732/C2228-P41/C2228-P41.minimised.mol

>  <scratch_subdir>  (941) 
/opt/xchem-fragalysis-2/maxwin/BulkDock/SCRATCH/505732/C2228-P41

>  <fragmenstein_runtime>  (941) 
10.545419692993164

>  <fragmenstein_outcome>  (941) 
too moved

>  <fragmenstein_mode>  (941) 
expansion

>  <fragmenstein_error>  (941) 


$$$$
C2228-P196
     RDKit          3D

 62 66  0  0  0  0  0  0  0  0999 V2000
   -3.0268   -2.8348   31.5160 O   0  0  0  0  0  0  0  0  0  0  0  0
   -1.8029   -2.0821   31.7008 S   0  0  0  0  0  0  0  0  0  0  0  0
   -1.6299   -1.2477   32.8747 O   0  0  0  0  0  0  0  0  0  0  0  0
   -1.5027   -1.0359   30.2146 C   0  0  0  0  0  0  0  0  0  0  0  0
   -0.1644   -0.4284   30.0873 N   0  0  0  0  0  0  0  0  0  0  0  0
   -0.1467    0.6326   29.0767 C   0  0  0  0  0  0  0  0  0  0  0  0
    1.2833    1.0088   28.6264 C   0  0  0  0  0  0  0  0  0  0  0  0
    2.3307    1.0268   29.7192 C   0  0  0  0  0  0  0  0  0  0  0  0
    3.1427   -0.1833   29.8822 C   0  0  0  0  0  0  0  0  0  0  0  0
    4.0830   -0.2593   30.8485 C   0  0  0  0  0  0  0  0  0  0  0  0
    4.8554   -1.3946   31.0765 N   0  0  0  0  0  0  0  0  0  0  0  0
    4.6501   -2.2961   32.0721 C   0  0  0  0  0  0  0  0  0  0  0  0
    5.0579   -3.5441   32.1362 N   0  0  0  0  0  0  0  0  0  0  0  0
    4.5346   -4.1110   33.2780 N   0  0  0  0  0  0  0  0  0  0  0  0
    3.7893   -3.2031   33.8775 C   0  0  0  0  0  0  0  0  0  0  0  0
    2.9201   -3.3877   35.0212 C   0  0  0  0  0  0  0  0  0  0  0  0
    1.6152   -2.8711   35.0267 C   0  0  0  0  0  0  0  0  0  0  0  0
    0.7483   -3.1532   36.0811 C   0  0  0  0  0  0  0  0  0  0  0  0
    1.1986   -3.9028   37.1626 C   0  0  0  0  0  0  0  0  0  0  0  0
    2.5084   -4.3789   37.1838 C   0  0  0  0  0  0  0  0  0  0  0  0
    3.3625   -4.1385   36.1087 C   0  0  0  0  0  0  0  0  0  0  0  0
    3.8888   -2.0307   33.1757 N   0  0  0  0  0  0  0  0  0  0  0  0
    4.2766    0.8894   31.6405 N   0  0  0  0  0  0  0  0  0  0  0  0
    5.1677    1.1544   32.6467 C   0  0  0  0  0  0  0  0  0  0  0  0
    4.9364    2.3421   33.1578 N   0  0  0  0  0  0  0  0  0  0  0  0
    3.9024    2.9096   32.4470 N   0  0  0  0  0  0  0  0  0  0  0  0
    3.5279    2.0508   31.5235 C   0  0  0  0  0  0  0  0  0  0  0  0
    2.5356    2.1018   30.5102 C   0  0  0  0  0  0  0  0  0  0  0  0
   -0.5466   -3.2339   31.7384 N   0  0  0  0  0  0  0  0  0  0  0  0
   -0.1479   -3.8293   30.4262 C   0  0  0  0  0  0  0  0  0  0  0  0
    0.8754   -4.9505   30.6022 C   0  0  0  0  0  0  0  0  0  0  0  0
    1.4266   -4.9302   32.0135 C   0  0  0  0  0  0  0  0  0  0  0  0
    2.4146   -5.9109   32.1977 O   0  0  0  0  0  0  0  0  0  0  0  0
    0.3156   -5.2315   32.9843 C   0  0  0  0  0  0  0  0  0  0  0  0
   -0.8274   -4.2676   32.7899 C   0  0  0  0  0  0  0  0  0  0  0  0
   -1.7222   -1.6627   29.3445 H   0  0  0  0  0  0  0  0  0  0  0  0
   -2.2677   -0.2538   30.2851 H   0  0  0  0  0  0  0  0  0  0  0  0
    0.0981   -0.0337   30.9936 H   0  0  0  0  0  0  0  0  0  0  0  0
   -0.7098    0.3290   28.1857 H   0  0  0  0  0  0  0  0  0  0  0  0
   -0.6381    1.5235   29.4799 H   0  0  0  0  0  0  0  0  0  0  0  0
    1.2483    1.9988   28.1568 H   0  0  0  0  0  0  0  0  0  0  0  0
    1.5976    0.3196   27.8312 H   0  0  0  0  0  0  0  0  0  0  0  0
    2.9342   -1.0273   29.2303 H   0  0  0  0  0  0  0  0  0  0  0  0
    5.0971   -1.8694   30.2047 H   0  0  0  0  0  0  0  0  0  0  0  0
    1.2330   -2.2884   34.1907 H   0  0  0  0  0  0  0  0  0  0  0  0
   -0.2718   -2.7748   36.0654 H   0  0  0  0  0  0  0  0  0  0  0  0
    0.5304   -4.1103   37.9954 H   0  0  0  0  0  0  0  0  0  0  0  0
    2.8583   -4.9610   38.0333 H   0  0  0  0  0  0  0  0  0  0  0  0
    4.3708   -4.5481   36.1240 H   0  0  0  0  0  0  0  0  0  0  0  0
    3.4149   -1.1686   33.3928 H   0  0  0  0  0  0  0  0  0  0  0  0
    5.9385    0.4643   32.9577 H   0  0  0  0  0  0  0  0  0  0  0  0
    1.9578    3.0143   30.4024 H   0  0  0  0  0  0  0  0  0  0  0  0
   -1.0193   -4.1894   29.8773 H   0  0  0  0  0  0  0  0  0  0  0  0
    0.3258   -3.0500   29.8220 H   0  0  0  0  0  0  0  0  0  0  0  0
    1.6828   -4.8545   29.8662 H   0  0  0  0  0  0  0  0  0  0  0  0
    0.4101   -5.9223   30.3910 H   0  0  0  0  0  0  0  0  0  0  0  0
    1.8687   -3.9492   32.2004 H   0  0  0  0  0  0  0  0  0  0  0  0
    3.1731   -5.4602   32.6305 H   0  0  0  0  0  0  0  0  0  0  0  0
   -0.0410   -6.2624   32.8468 H   0  0  0  0  0  0  0  0  0  0  0  0
    0.6784   -5.2237   34.0155 H   0  0  0  0  0  0  0  0  0  0  0  0
   -1.0644   -3.7816   33.7405 H   0  0  0  0  0  0  0  0  0  0  0  0
   -1.6827   -4.8611   32.4824 H   0  0  0  0  0  0  0  0  0  0  0  0
  1  2  2  0
  2  3  2  0
  2  4  1  0
  4  5  1  0
  5  6  1  0
  6  7  1  0
  7  8  1  0
  8  9  1  0
  9 10  2  0
 10 11  1  0
 11 12  1  0
 12 13  2  0
 13 14  1  0
 14 15  2  0
 15 16  1  0
 16 17  2  0
 17 18  1  0
 18 19  2  0
 19 20  1  0
 20 21  2  0
 15 22  1  0
 10 23  1  0
 23 24  1  0
 24 25  2  0
 25 26  1  0
 26 27  2  0
 27 28  1  0
  2 29  1  0
 29 30  1  0
 30 31  1  0
 31 32  1  0
 32 33  1  0
 32 34  1  0
 34 35  1  0
 28  8  2  0
 35 29  1  0
 22 12  1  0
 27 23  1  0
 21 16  1  0
  4 36  1  0
  4 37  1  0
  5 38  1  0
  6 39  1  0
  6 40  1  0
  7 41  1  0
  7 42  1  0
  9 43  1  0
 11 44  1  0
 17 45  1  0
 18 46  1  0
 19 47  1  0
 20 48  1  0
 21 49  1  0
 22 50  1  0
 24 51  1  0
 28 52  1  0
 30 53  1  0
 30 54  1  0
 31 55  1  0
 31 56  1  0
 32 57  1  0
 33 58  1  0
 34 59  1  0
 34 60  1  0
 35 61  1  0
 35 62  1  0
M  END
>  <Energy>  (942) 
89.390276500345365

>  <compound_id>  (942) 
2228

>  <target_id>  (942) 
1

>  <reference_id>  (942) 
196

>  <inspiration_ids>  (942) 
[41, 196]

>  <energy_score>  (942) 
-72.22389620502861

>  <distance_score>  (942) 
1.484966401857667

>  <path>  (942) 
/opt/xchem-fragalysis-2/maxwin/BulkDock/SCRATCH/505732/C2228-P196/C2228-P196.minimised.mol

>  <scratch_subdir>  (942) 
/opt/xchem-fragalysis-2/maxwin/BulkDock/SCRATCH/505732/C2228-P196

>  <fragmenstein_runtime>  (942) 
10.179352521896362

>  <fragmenstein_outcome>  (942) 
too moved

>  <fragmenstein_mode>  (942) 
expansion

>  <fragmenstein_error>  (942) 


$$$$
C2229-P41
     RDKit          3D

 60 63  0  0  0  0  0  0  0  0999 V2000
    5.9459   -5.9096   36.5353 N   0  0  0  0  0  0  0  0  0  0  0  0
    4.8768   -5.8261   37.5534 C   0  0  0  0  0  0  0  0  0  0  0  0
    5.4837   -5.7249   38.9858 C   0  0  0  0  0  0  0  0  0  0  0  0
    6.5491   -6.7352   39.1862 N   0  0  0  0  0  0  0  0  0  0  0  0
    7.2400   -6.5288   40.4908 C   0  0  0  0  0  0  0  0  0  0  0  0
    6.2997   -6.8502   42.0395 S   0  0  0  0  0  0  0  0  0  0  0  0
    5.4109   -5.7297   42.2718 O   0  0  0  0  0  0  0  0  0  0  0  0
    5.7766   -8.1993   41.9625 O   0  0  0  0  0  0  0  0  0  0  0  0
    7.4962   -6.8197   43.2444 N   0  0  0  0  0  0  0  0  0  0  0  0
    8.4590   -7.9488   43.2614 C   0  0  0  0  0  0  0  0  0  0  0  0
    9.1334   -8.0194   44.6295 C   0  0  0  0  0  0  0  0  0  0  0  0
    9.7969   -6.6941   44.9939 C   0  0  0  0  0  0  0  0  0  0  0  0
   10.9107   -6.4612   44.1302 O   0  0  0  0  0  0  0  0  0  0  0  0
    8.8198   -5.5296   44.8636 C   0  0  0  0  0  0  0  0  0  0  0  0
    8.1526   -5.5098   43.4923 C   0  0  0  0  0  0  0  0  0  0  0  0
    3.9769   -4.6858   37.2458 C   0  0  0  0  0  0  0  0  0  0  0  0
    4.4700   -3.4125   37.3860 O   0  0  0  0  0  0  0  0  0  0  0  0
    3.4743   -2.6154   36.9134 C   0  0  0  0  0  0  0  0  0  0  0  0
    2.4174   -3.2501   36.4601 N   0  0  0  0  0  0  0  0  0  0  0  0
    2.7080   -4.5845   36.7190 C   0  0  0  0  0  0  0  0  0  0  0  0
    1.8460   -5.6871   36.2948 C   0  0  0  0  0  0  0  0  0  0  0  0
    1.8874   -6.7551   36.8321 O   0  0  0  0  0  0  0  0  0  0  0  0
    1.1131   -5.2444   35.1513 N   0  0  0  0  0  0  0  0  0  0  0  0
    0.3154   -5.9257   34.2807 C   0  0  0  0  0  0  0  0  0  0  0  0
   -0.2209   -7.1214   34.5689 C   0  0  0  0  0  0  0  0  0  0  0  0
   -0.8863   -7.8721   33.6342 N   0  0  0  0  0  0  0  0  0  0  0  0
   -0.9704   -7.5489   32.2999 C   0  0  0  0  0  0  0  0  0  0  0  0
   -1.5078   -8.2744   31.4682 O   0  0  0  0  0  0  0  0  0  0  0  0
   -0.3763   -6.2371   31.9262 C   0  0  0  0  0  0  0  0  0  0  0  0
   -0.3918   -5.8399   30.5927 C   0  0  0  0  0  0  0  0  0  0  0  0
    0.0244   -4.5605   30.2256 C   0  0  0  0  0  0  0  0  0  0  0  0
    0.4835   -3.6828   31.1961 C   0  0  0  0  0  0  0  0  0  0  0  0
    0.5568   -4.0975   32.5267 C   0  0  0  0  0  0  0  0  0  0  0  0
    0.1495   -5.3902   32.9109 C   0  0  0  0  0  0  0  0  0  0  0  0
    6.6247   -6.5819   36.9097 H   0  0  0  0  0  0  0  0  0  0  0  0
    6.4551   -5.0251   36.5548 H   0  0  0  0  0  0  0  0  0  0  0  0
    4.3189   -6.7676   37.4982 H   0  0  0  0  0  0  0  0  0  0  0  0
    4.6806   -5.8581   39.7192 H   0  0  0  0  0  0  0  0  0  0  0  0
    5.9115   -4.7261   39.1339 H   0  0  0  0  0  0  0  0  0  0  0  0
    6.1021   -7.6571   39.2301 H   0  0  0  0  0  0  0  0  0  0  0  0
    8.0823   -7.2269   40.5076 H   0  0  0  0  0  0  0  0  0  0  0  0
    7.6383   -5.5109   40.5561 H   0  0  0  0  0  0  0  0  0  0  0  0
    7.9422   -8.8972   43.0870 H   0  0  0  0  0  0  0  0  0  0  0  0
    9.2066   -7.8190   42.4719 H   0  0  0  0  0  0  0  0  0  0  0  0
    9.8783   -8.8233   44.6159 H   0  0  0  0  0  0  0  0  0  0  0  0
    8.3846   -8.2710   45.3908 H   0  0  0  0  0  0  0  0  0  0  0  0
   10.1792   -6.7338   46.0207 H   0  0  0  0  0  0  0  0  0  0  0  0
   11.6199   -7.0706   44.4036 H   0  0  0  0  0  0  0  0  0  0  0  0
    8.0515   -5.6127   45.6424 H   0  0  0  0  0  0  0  0  0  0  0  0
    9.3454   -4.5792   45.0126 H   0  0  0  0  0  0  0  0  0  0  0  0
    8.8885   -5.3064   42.7058 H   0  0  0  0  0  0  0  0  0  0  0  0
    7.4142   -4.7014   43.4816 H   0  0  0  0  0  0  0  0  0  0  0  0
    3.6542   -1.5494   36.9413 H   0  0  0  0  0  0  0  0  0  0  0  0
    1.3887   -4.2918   34.9313 H   0  0  0  0  0  0  0  0  0  0  0  0
   -0.1424   -7.5797   35.5513 H   0  0  0  0  0  0  0  0  0  0  0  0
   -1.2712   -8.7727   33.9237 H   0  0  0  0  0  0  0  0  0  0  0  0
   -0.7844   -6.5226   29.8470 H   0  0  0  0  0  0  0  0  0  0  0  0
   -0.0438   -4.2375   29.1884 H   0  0  0  0  0  0  0  0  0  0  0  0
    0.7854   -2.6749   30.9193 H   0  0  0  0  0  0  0  0  0  0  0  0
    0.9265   -3.3733   33.2467 H   0  0  0  0  0  0  0  0  0  0  0  0
  1  2  1  0
  2  3  1  0
  3  4  1  0
  4  5  1  0
  5  6  1  0
  6  7  2  0
  6  8  2  0
  6  9  1  0
  9 10  1  0
 10 11  1  0
 11 12  1  0
 12 13  1  0
 12 14  1  0
 14 15  1  0
  2 16  1  0
 16 17  1  0
 17 18  1  0
 18 19  2  0
 19 20  1  0
 20 21  1  0
 21 22  2  0
 21 23  1  0
 23 24  1  0
 24 25  2  0
 25 26  1  0
 26 27  1  0
 27 28  2  0
 27 29  1  0
 29 30  2  0
 30 31  1  0
 31 32  2  0
 32 33  1  0
 33 34  2  0
 15  9  1  0
 20 16  2  0
 34 24  1  0
 34 29  1  0
  1 35  1  0
  1 36  1  0
  2 37  1  0
  3 38  1  0
  3 39  1  0
  4 40  1  0
  5 41  1  0
  5 42  1  0
 10 43  1  0
 10 44  1  0
 11 45  1  0
 11 46  1  0
 12 47  1  0
 13 48  1  0
 14 49  1  0
 14 50  1  0
 15 51  1  0
 15 52  1  0
 18 53  1  0
 23 54  1  0
 25 55  1  0
 26 56  1  0
 30 57  1  0
 31 58  1  0
 32 59  1  0
 33 60  1  0
M  END
>  <Energy>  (943) 
102.97965550126105

>  <compound_id>  (943) 
2229

>  <target_id>  (943) 
1

>  <reference_id>  (943) 
41

>  <inspiration_ids>  (943) 
[41, 197]

>  <energy_score>  (943) 
-104.4364283897803

>  <distance_score>  (943) 
2.1807742427786145

>  <path>  (943) 
/opt/xchem-fragalysis-2/maxwin/BulkDock/SCRATCH/505732/C2229-P41/C2229-P41.minimised.mol

>  <scratch_subdir>  (943) 
/opt/xchem-fragalysis-2/maxwin/BulkDock/SCRATCH/505732/C2229-P41

>  <fragmenstein_runtime>  (943) 
10.538305282592773

>  <fragmenstein_outcome>  (943) 
too moved

>  <fragmenstein_mode>  (943) 
expansion

>  <fragmenstein_error>  (943) 


$$$$
C2229-P197
     RDKit          3D

 60 63  0  0  0  0  0  0  0  0999 V2000
    6.3369   -4.1352   35.9711 N   0  0  0  0  0  0  0  0  0  0  0  0
    5.0838   -4.4875   35.2686 C   0  0  0  0  0  0  0  0  0  0  0  0
    5.0876   -6.0232   34.9986 C   0  0  0  0  0  0  0  0  0  0  0  0
    5.2619   -6.8112   36.2312 N   0  0  0  0  0  0  0  0  0  0  0  0
    5.5050   -8.2466   35.9622 C   0  0  0  0  0  0  0  0  0  0  0  0
    7.0991   -8.7740   35.2001 S   0  0  0  0  0  0  0  0  0  0  0  0
    7.1016   -8.3781   33.8056 O   0  0  0  0  0  0  0  0  0  0  0  0
    8.1811   -8.3739   36.0760 O   0  0  0  0  0  0  0  0  0  0  0  0
    7.0002  -10.4763   35.2358 N   0  0  0  0  0  0  0  0  0  0  0  0
    7.0965  -11.1114   36.5763 C   0  0  0  0  0  0  0  0  0  0  0  0
    7.3892  -12.6021   36.4167 C   0  0  0  0  0  0  0  0  0  0  0  0
    6.3483  -13.2861   35.5346 C   0  0  0  0  0  0  0  0  0  0  0  0
    5.0836  -13.2925   36.1975 O   0  0  0  0  0  0  0  0  0  0  0  0
    6.2031  -12.5640   34.1995 C   0  0  0  0  0  0  0  0  0  0  0  0
    5.9238  -11.0805   34.4051 C   0  0  0  0  0  0  0  0  0  0  0  0
    3.8873   -4.0484   36.0459 C   0  0  0  0  0  0  0  0  0  0  0  0
    4.0359   -3.3949   37.2378 O   0  0  0  0  0  0  0  0  0  0  0  0
    2.7590   -3.2247   37.6810 C   0  0  0  0  0  0  0  0  0  0  0  0
    1.8160   -3.6796   36.8848 N   0  0  0  0  0  0  0  0  0  0  0  0
    2.5375   -4.1459   35.8113 C   0  0  0  0  0  0  0  0  0  0  0  0
    1.9864   -4.6303   34.5754 C   0  0  0  0  0  0  0  0  0  0  0  0
    2.5756   -4.4651   33.5822 O   0  0  0  0  0  0  0  0  0  0  0  0
    0.6241   -5.3018   34.8281 N   0  0  0  0  0  0  0  0  0  0  0  0
   -0.2051   -5.9544   33.9802 C   0  0  0  0  0  0  0  0  0  0  0  0
   -0.8169   -7.1070   34.2800 C   0  0  0  0  0  0  0  0  0  0  0  0
   -1.2916   -7.9308   33.2827 N   0  0  0  0  0  0  0  0  0  0  0  0
   -1.0898   -7.7040   31.9316 C   0  0  0  0  0  0  0  0  0  0  0  0
   -1.4204   -8.5063   31.0642 O   0  0  0  0  0  0  0  0  0  0  0  0
   -0.4911   -6.3851   31.5866 C   0  0  0  0  0  0  0  0  0  0  0  0
   -0.3409   -5.9783   30.2734 C   0  0  0  0  0  0  0  0  0  0  0  0
   -0.0650   -4.6399   29.9492 C   0  0  0  0  0  0  0  0  0  0  0  0
    0.0852   -3.6992   30.9485 C   0  0  0  0  0  0  0  0  0  0  0  0
    0.0072   -4.1220   32.2639 C   0  0  0  0  0  0  0  0  0  0  0  0
   -0.2148   -5.4779   32.5920 C   0  0  0  0  0  0  0  0  0  0  0  0
    7.1209   -4.2423   35.3294 H   0  0  0  0  0  0  0  0  0  0  0  0
    6.2963   -3.1470   36.2192 H   0  0  0  0  0  0  0  0  0  0  0  0
    5.0833   -3.9608   34.3068 H   0  0  0  0  0  0  0  0  0  0  0  0
    5.9081   -6.2234   34.3020 H   0  0  0  0  0  0  0  0  0  0  0  0
    4.1594   -6.3326   34.5102 H   0  0  0  0  0  0  0  0  0  0  0  0
    6.0695   -6.4144   36.7290 H   0  0  0  0  0  0  0  0  0  0  0  0
    5.4635   -8.7581   36.9283 H   0  0  0  0  0  0  0  0  0  0  0  0
    4.7022   -8.6422   35.3320 H   0  0  0  0  0  0  0  0  0  0  0  0
    7.9118  -10.6629   37.1528 H   0  0  0  0  0  0  0  0  0  0  0  0
    6.1640  -10.9643   37.1320 H   0  0  0  0  0  0  0  0  0  0  0  0
    7.4058  -13.0667   37.4094 H   0  0  0  0  0  0  0  0  0  0  0  0
    8.3830  -12.7319   35.9708 H   0  0  0  0  0  0  0  0  0  0  0  0
    6.6317  -14.3292   35.3553 H   0  0  0  0  0  0  0  0  0  0  0  0
    5.1426  -13.9334   36.9289 H   0  0  0  0  0  0  0  0  0  0  0  0
    7.1243  -12.6893   33.6184 H   0  0  0  0  0  0  0  0  0  0  0  0
    5.3801  -13.0014   33.6225 H   0  0  0  0  0  0  0  0  0  0  0  0
    4.9621  -10.9424   34.9073 H   0  0  0  0  0  0  0  0  0  0  0  0
    5.8692  -10.5923   33.4279 H   0  0  0  0  0  0  0  0  0  0  0  0
    2.6454   -2.7404   38.6412 H   0  0  0  0  0  0  0  0  0  0  0  0
    0.4484   -5.3467   35.8298 H   0  0  0  0  0  0  0  0  0  0  0  0
   -0.8399   -7.5240   35.2816 H   0  0  0  0  0  0  0  0  0  0  0  0
   -1.6645   -8.8428   33.5386 H   0  0  0  0  0  0  0  0  0  0  0  0
   -0.5516   -6.7004   29.4982 H   0  0  0  0  0  0  0  0  0  0  0  0
   -0.0188   -4.3295   28.9073 H   0  0  0  0  0  0  0  0  0  0  0  0
    0.2634   -2.6551   30.7083 H   0  0  0  0  0  0  0  0  0  0  0  0
    0.1216   -3.3754   33.0475 H   0  0  0  0  0  0  0  0  0  0  0  0
  1  2  1  0
  2  3  1  0
  3  4  1  0
  4  5  1  0
  5  6  1  0
  6  7  2  0
  6  8  2  0
  6  9  1  0
  9 10  1  0
 10 11  1  0
 11 12  1  0
 12 13  1  0
 12 14  1  0
 14 15  1  0
  2 16  1  0
 16 17  1  0
 17 18  1  0
 18 19  2  0
 19 20  1  0
 20 21  1  0
 21 22  2  0
 21 23  1  0
 23 24  1  0
 24 25  2  0
 25 26  1  0
 26 27  1  0
 27 28  2  0
 27 29  1  0
 29 30  2  0
 30 31  1  0
 31 32  2  0
 32 33  1  0
 33 34  2  0
 15  9  1  0
 20 16  2  0
 34 24  1  0
 34 29  1  0
  1 35  1  0
  1 36  1  0
  2 37  1  0
  3 38  1  0
  3 39  1  0
  4 40  1  0
  5 41  1  0
  5 42  1  0
 10 43  1  0
 10 44  1  0
 11 45  1  0
 11 46  1  0
 12 47  1  0
 13 48  1  0
 14 49  1  0
 14 50  1  0
 15 51  1  0
 15 52  1  0
 18 53  1  0
 23 54  1  0
 25 55  1  0
 26 56  1  0
 30 57  1  0
 31 58  1  0
 32 59  1  0
 33 60  1  0
M  END
>  <Energy>  (944) 
129.78976338358004

>  <compound_id>  (944) 
2229

>  <target_id>  (944) 
1

>  <reference_id>  (944) 
197

>  <inspiration_ids>  (944) 
[41, 197]

>  <energy_score>  (944) 
-89.93224643369203

>  <distance_score>  (944) 
1.9931227596356094

>  <path>  (944) 
/opt/xchem-fragalysis-2/maxwin/BulkDock/SCRATCH/505732/C2229-P197/C2229-P197.minimised.mol

>  <scratch_subdir>  (944) 
/opt/xchem-fragalysis-2/maxwin/BulkDock/SCRATCH/505732/C2229-P197

>  <fragmenstein_runtime>  (944) 
6.769609451293945

>  <fragmenstein_outcome>  (944) 
too moved

>  <fragmenstein_mode>  (944) 
expansion

>  <fragmenstein_error>  (944) 


$$$$
C2230-P41
     RDKit          3D

 63 66  0  0  0  0  0  0  0  0999 V2000
    3.4997   -3.7370   34.3656 N   0  0  0  0  0  0  0  0  0  0  0  0
    2.7834   -3.5793   35.6274 C   0  0  0  0  0  0  0  0  0  0  0  0
    1.4618   -2.9026   35.4422 C   0  0  0  0  0  0  0  0  0  0  0  0
    1.3476   -1.9670   34.4279 O   0  0  0  0  0  0  0  0  0  0  0  0
   -0.0051   -1.7839   34.2751 C   0  0  0  0  0  0  0  0  0  0  0  0
   -0.4893   -1.2250   32.9754 C   0  0  0  0  0  0  0  0  0  0  0  0
   -1.4406   -2.1781   32.2002 C   0  0  0  0  0  0  0  0  0  0  0  0
   -0.7965   -3.3430   31.5971 N   0  0  0  0  0  0  0  0  0  0  0  0
   -0.7972   -3.3468   30.1056 C   0  0  0  0  0  0  0  0  0  0  0  0
    0.5519   -2.4724   29.2544 S   0  0  0  0  0  0  0  0  0  0  0  0
    1.5762   -2.2040   30.2493 O   0  0  0  0  0  0  0  0  0  0  0  0
    0.8950   -3.2263   28.0704 O   0  0  0  0  0  0  0  0  0  0  0  0
   -0.1556   -1.0114   28.8172 N   0  0  0  0  0  0  0  0  0  0  0  0
   -0.1740    0.0829   29.7903 C   0  0  0  0  0  0  0  0  0  0  0  0
   -0.1358    1.3924   29.0381 C   0  0  0  0  0  0  0  0  0  0  0  0
   -1.3153    1.4890   28.0837 C   0  0  0  0  0  0  0  0  0  0  0  0
   -1.2166    2.6824   27.3190 O   0  0  0  0  0  0  0  0  0  0  0  0
   -1.3530    0.2929   27.1534 C   0  0  0  0  0  0  0  0  0  0  0  0
   -1.3420   -1.0056   27.9348 C   0  0  0  0  0  0  0  0  0  0  0  0
   -0.7241   -2.3450   35.2195 N   0  0  0  0  0  0  0  0  0  0  0  0
    0.1596   -3.2319   35.8287 C   0  0  0  0  0  0  0  0  0  0  0  0
   -0.2492   -4.6426   35.8897 C   0  0  0  0  0  0  0  0  0  0  0  0
   -0.6676   -5.2372   36.8008 O   0  0  0  0  0  0  0  0  0  0  0  0
   -0.0678   -5.0649   34.4196 N   0  0  0  0  0  0  0  0  0  0  0  0
   -0.2598   -6.2493   33.8236 C   0  0  0  0  0  0  0  0  0  0  0  0
   -1.0777   -7.2097   34.2463 C   0  0  0  0  0  0  0  0  0  0  0  0
   -1.5111   -8.1626   33.3638 N   0  0  0  0  0  0  0  0  0  0  0  0
   -1.1809   -8.2077   32.0305 C   0  0  0  0  0  0  0  0  0  0  0  0
   -1.6703   -9.0009   31.2391 O   0  0  0  0  0  0  0  0  0  0  0  0
   -0.1515   -7.2533   31.5865 C   0  0  0  0  0  0  0  0  0  0  0  0
    0.3980   -7.3307   30.3179 C   0  0  0  0  0  0  0  0  0  0  0  0
    1.4115   -6.4386   29.9230 C   0  0  0  0  0  0  0  0  0  0  0  0
    1.9459   -5.5412   30.8229 C   0  0  0  0  0  0  0  0  0  0  0  0
    1.4409   -5.5309   32.1080 C   0  0  0  0  0  0  0  0  0  0  0  0
    0.3486   -6.3384   32.4880 C   0  0  0  0  0  0  0  0  0  0  0  0
    4.4511   -4.0448   34.5689 H   0  0  0  0  0  0  0  0  0  0  0  0
    3.6020   -2.8108   33.9428 H   0  0  0  0  0  0  0  0  0  0  0  0
    2.6469   -4.5635   36.0868 H   0  0  0  0  0  0  0  0  0  0  0  0
    3.3878   -2.9766   36.3140 H   0  0  0  0  0  0  0  0  0  0  0  0
   -1.0303   -0.2961   33.1916 H   0  0  0  0  0  0  0  0  0  0  0  0
    0.3713   -0.9568   32.3588 H   0  0  0  0  0  0  0  0  0  0  0  0
   -2.2052   -2.5495   32.8920 H   0  0  0  0  0  0  0  0  0  0  0  0
   -1.9910   -1.6027   31.4493 H   0  0  0  0  0  0  0  0  0  0  0  0
    0.1989   -3.3328   31.8447 H   0  0  0  0  0  0  0  0  0  0  0  0
   -1.7577   -3.0339   29.6922 H   0  0  0  0  0  0  0  0  0  0  0  0
   -0.6615   -4.3865   29.7982 H   0  0  0  0  0  0  0  0  0  0  0  0
   -1.0702    0.0395   30.4123 H   0  0  0  0  0  0  0  0  0  0  0  0
    0.7053    0.0576   30.4375 H   0  0  0  0  0  0  0  0  0  0  0  0
    0.8034    1.4751   28.4739 H   0  0  0  0  0  0  0  0  0  0  0  0
   -0.1309    2.2410   29.7308 H   0  0  0  0  0  0  0  0  0  0  0  0
   -2.2570    1.5321   28.6344 H   0  0  0  0  0  0  0  0  0  0  0  0
   -0.3458    2.7150   26.8903 H   0  0  0  0  0  0  0  0  0  0  0  0
   -0.4728    0.3395   26.5102 H   0  0  0  0  0  0  0  0  0  0  0  0
   -2.2270    0.3455   26.4949 H   0  0  0  0  0  0  0  0  0  0  0  0
   -2.2461   -1.0794   28.5439 H   0  0  0  0  0  0  0  0  0  0  0  0
   -1.3311   -1.8601   27.2649 H   0  0  0  0  0  0  0  0  0  0  0  0
    0.2474   -4.2725   33.8776 H   0  0  0  0  0  0  0  0  0  0  0  0
   -1.5354   -7.2157   35.2291 H   0  0  0  0  0  0  0  0  0  0  0  0
   -2.1160   -8.9007   33.7108 H   0  0  0  0  0  0  0  0  0  0  0  0
    0.0562   -8.1376   29.6746 H   0  0  0  0  0  0  0  0  0  0  0  0
    1.8719   -6.4845   28.9398 H   0  0  0  0  0  0  0  0  0  0  0  0
    2.7638   -4.8813   30.5416 H   0  0  0  0  0  0  0  0  0  0  0  0
    1.9147   -4.8578   32.8146 H   0  0  0  0  0  0  0  0  0  0  0  0
  1  2  1  0
  2  3  1  0
  3  4  1  0
  4  5  1  0
  5  6  1  0
  6  7  1  0
  7  8  1  0
  8  9  1  0
  9 10  1  0
 10 11  2  0
 10 12  2  0
 10 13  1  0
 13 14  1  0
 14 15  1  0
 15 16  1  0
 16 17  1  0
 16 18  1  0
 18 19  1  0
  5 20  2  0
 20 21  1  0
 21 22  1  0
 22 23  2  0
 22 24  1  0
 24 25  1  0
 25 26  2  0
 26 27  1  0
 27 28  1  0
 28 29  2  0
 28 30  1  0
 30 31  2  0
 31 32  1  0
 32 33  2  0
 33 34  1  0
 34 35  2  0
 21  3  2  0
 35 25  1  0
 19 13  1  0
 35 30  1  0
  1 36  1  0
  1 37  1  0
  2 38  1  0
  2 39  1  0
  6 40  1  0
  6 41  1  0
  7 42  1  0
  7 43  1  0
  8 44  1  0
  9 45  1  0
  9 46  1  0
 14 47  1  0
 14 48  1  0
 15 49  1  0
 15 50  1  0
 16 51  1  0
 17 52  1  0
 18 53  1  0
 18 54  1  0
 19 55  1  0
 19 56  1  0
 24 57  1  0
 26 58  1  0
 27 59  1  0
 31 60  1  0
 32 61  1  0
 33 62  1  0
 34 63  1  0
M  END
>  <Energy>  (945) 
147.75942589829725

>  <compound_id>  (945) 
2230

>  <target_id>  (945) 
1

>  <reference_id>  (945) 
41

>  <inspiration_ids>  (945) 
[41, 198]

>  <energy_score>  (945) 
-24.799004710677536

>  <distance_score>  (945) 
1.9796441317366487

>  <path>  (945) 
/opt/xchem-fragalysis-2/maxwin/BulkDock/SCRATCH/505732/C2230-P41/C2230-P41.minimised.mol

>  <scratch_subdir>  (945) 
/opt/xchem-fragalysis-2/maxwin/BulkDock/SCRATCH/505732/C2230-P41

>  <fragmenstein_runtime>  (945) 
10.096308708190918

>  <fragmenstein_outcome>  (945) 
too moved

>  <fragmenstein_mode>  (945) 
expansion

>  <fragmenstein_error>  (945) 


$$$$
C2230-P198
     RDKit          3D

 63 66  0  0  0  0  0  0  0  0999 V2000
    3.6602   -3.6845   34.2180 N   0  0  0  0  0  0  0  0  0  0  0  0
    3.0770   -3.5696   35.5521 C   0  0  0  0  0  0  0  0  0  0  0  0
    1.7275   -2.9324   35.5103 C   0  0  0  0  0  0  0  0  0  0  0  0
    1.5153   -1.9058   34.6056 O   0  0  0  0  0  0  0  0  0  0  0  0
    0.1471   -1.7828   34.5518 C   0  0  0  0  0  0  0  0  0  0  0  0
   -0.4641   -1.1818   33.3254 C   0  0  0  0  0  0  0  0  0  0  0  0
   -1.0944   -2.2660   32.4187 C   0  0  0  0  0  0  0  0  0  0  0  0
   -0.1140   -3.1236   31.7703 N   0  0  0  0  0  0  0  0  0  0  0  0
    0.6839   -2.4679   30.7022 C   0  0  0  0  0  0  0  0  0  0  0  0
    0.2910   -2.8878   28.9790 S   0  0  0  0  0  0  0  0  0  0  0  0
   -0.7349   -3.9078   29.0488 O   0  0  0  0  0  0  0  0  0  0  0  0
    1.5427   -3.1341   28.2907 O   0  0  0  0  0  0  0  0  0  0  0  0
   -0.3929   -1.4669   28.3999 N   0  0  0  0  0  0  0  0  0  0  0  0
   -1.7468   -1.1123   28.8466 C   0  0  0  0  0  0  0  0  0  0  0  0
   -1.6741    0.1183   29.7396 C   0  0  0  0  0  0  0  0  0  0  0  0
   -1.0996    1.3228   28.9972 C   0  0  0  0  0  0  0  0  0  0  0  0
   -0.2332    2.0241   29.8971 O   0  0  0  0  0  0  0  0  0  0  0  0
   -0.2868    0.9202   27.7828 C   0  0  0  0  0  0  0  0  0  0  0  0
    0.5105   -0.3290   28.1192 C   0  0  0  0  0  0  0  0  0  0  0  0
   -0.4867   -2.4585   35.4838 N   0  0  0  0  0  0  0  0  0  0  0  0
    0.4691   -3.3556   35.9344 C   0  0  0  0  0  0  0  0  0  0  0  0
    0.1168   -4.7789   35.9381 C   0  0  0  0  0  0  0  0  0  0  0  0
   -0.2754   -5.4070   36.8394 O   0  0  0  0  0  0  0  0  0  0  0  0
    0.3029   -5.1645   34.4551 N   0  0  0  0  0  0  0  0  0  0  0  0
   -0.0200   -6.2916   33.7987 C   0  0  0  0  0  0  0  0  0  0  0  0
   -0.8940   -7.2028   34.2252 C   0  0  0  0  0  0  0  0  0  0  0  0
   -1.4495   -8.0845   33.3374 N   0  0  0  0  0  0  0  0  0  0  0  0
   -1.2068   -8.0947   31.9864 C   0  0  0  0  0  0  0  0  0  0  0  0
   -1.7692   -8.8337   31.1927 O   0  0  0  0  0  0  0  0  0  0  0  0
   -0.1752   -7.1653   31.5099 C   0  0  0  0  0  0  0  0  0  0  0  0
    0.2032   -7.1655   30.1787 C   0  0  0  0  0  0  0  0  0  0  0  0
    1.2309   -6.3258   29.7387 C   0  0  0  0  0  0  0  0  0  0  0  0
    1.9374   -5.5567   30.6409 C   0  0  0  0  0  0  0  0  0  0  0  0
    1.5839   -5.6078   31.9773 C   0  0  0  0  0  0  0  0  0  0  0  0
    0.4775   -6.3549   32.4169 C   0  0  0  0  0  0  0  0  0  0  0  0
    4.6305   -3.9848   34.3174 H   0  0  0  0  0  0  0  0  0  0  0  0
    3.7085   -2.7435   33.8207 H   0  0  0  0  0  0  0  0  0  0  0  0
    3.0180   -4.5646   36.0048 H   0  0  0  0  0  0  0  0  0  0  0  0
    3.7324   -2.9596   36.1832 H   0  0  0  0  0  0  0  0  0  0  0  0
   -1.2568   -0.4949   33.6458 H   0  0  0  0  0  0  0  0  0  0  0  0
    0.2752   -0.5776   32.7907 H   0  0  0  0  0  0  0  0  0  0  0  0
   -1.7392   -2.9056   33.0332 H   0  0  0  0  0  0  0  0  0  0  0  0
   -1.7593   -1.8119   31.6829 H   0  0  0  0  0  0  0  0  0  0  0  0
   -0.6002   -3.9042   31.3094 H   0  0  0  0  0  0  0  0  0  0  0  0
    1.7250   -2.7777   30.8384 H   0  0  0  0  0  0  0  0  0  0  0  0
    0.7093   -1.3823   30.7984 H   0  0  0  0  0  0  0  0  0  0  0  0
   -2.3657   -0.9327   27.9616 H   0  0  0  0  0  0  0  0  0  0  0  0
   -2.2178   -1.9342   29.3908 H   0  0  0  0  0  0  0  0  0  0  0  0
   -1.0580   -0.0781   30.6198 H   0  0  0  0  0  0  0  0  0  0  0  0
   -2.6623    0.3611   30.1366 H   0  0  0  0  0  0  0  0  0  0  0  0
   -1.9022    2.0059   28.6981 H   0  0  0  0  0  0  0  0  0  0  0  0
   -0.0961    2.9159   29.5207 H   0  0  0  0  0  0  0  0  0  0  0  0
    0.3970    1.7237   27.4866 H   0  0  0  0  0  0  0  0  0  0  0  0
   -0.9564    0.7243   26.9379 H   0  0  0  0  0  0  0  0  0  0  0  0
    1.1749   -0.5754   27.2918 H   0  0  0  0  0  0  0  0  0  0  0  0
    1.1533   -0.1342   28.9850 H   0  0  0  0  0  0  0  0  0  0  0  0
    0.7450   -4.3973   33.9582 H   0  0  0  0  0  0  0  0  0  0  0  0
   -1.2844   -7.2303   35.2365 H   0  0  0  0  0  0  0  0  0  0  0  0
   -2.0349   -8.8329   33.6997 H   0  0  0  0  0  0  0  0  0  0  0  0
   -0.3041   -7.8601   29.5222 H   0  0  0  0  0  0  0  0  0  0  0  0
    1.5627   -6.3058   28.7080 H   0  0  0  0  0  0  0  0  0  0  0  0
    2.7724   -4.9444   30.3091 H   0  0  0  0  0  0  0  0  0  0  0  0
    2.1779   -5.0193   32.6684 H   0  0  0  0  0  0  0  0  0  0  0  0
  1  2  1  0
  2  3  1  0
  3  4  1  0
  4  5  1  0
  5  6  1  0
  6  7  1  0
  7  8  1  0
  8  9  1  0
  9 10  1  0
 10 11  2  0
 10 12  2  0
 10 13  1  0
 13 14  1  0
 14 15  1  0
 15 16  1  0
 16 17  1  0
 16 18  1  0
 18 19  1  0
  5 20  2  0
 20 21  1  0
 21 22  1  0
 22 23  2  0
 22 24  1  0
 24 25  1  0
 25 26  2  0
 26 27  1  0
 27 28  1  0
 28 29  2  0
 28 30  1  0
 30 31  2  0
 31 32  1  0
 32 33  2  0
 33 34  1  0
 34 35  2  0
 21  3  2  0
 35 25  1  0
 19 13  1  0
 35 30  1  0
  1 36  1  0
  1 37  1  0
  2 38  1  0
  2 39  1  0
  6 40  1  0
  6 41  1  0
  7 42  1  0
  7 43  1  0
  8 44  1  0
  9 45  1  0
  9 46  1  0
 14 47  1  0
 14 48  1  0
 15 49  1  0
 15 50  1  0
 16 51  1  0
 17 52  1  0
 18 53  1  0
 18 54  1  0
 19 55  1  0
 19 56  1  0
 24 57  1  0
 26 58  1  0
 27 59  1  0
 31 60  1  0
 32 61  1  0
 33 62  1  0
 34 63  1  0
M  END
>  <Energy>  (946) 
147.64786161010622

>  <compound_id>  (946) 
2230

>  <target_id>  (946) 
1

>  <reference_id>  (946) 
198

>  <inspiration_ids>  (946) 
[41, 198]

>  <energy_score>  (946) 
-24.910568998871383

>  <distance_score>  (946) 
1.9271144527758002

>  <path>  (946) 
/opt/xchem-fragalysis-2/maxwin/BulkDock/SCRATCH/505732/C2230-P198/C2230-P198.minimised.mol

>  <scratch_subdir>  (946) 
/opt/xchem-fragalysis-2/maxwin/BulkDock/SCRATCH/505732/C2230-P198

>  <fragmenstein_runtime>  (946) 
6.883140802383423

>  <fragmenstein_outcome>  (946) 
too moved

>  <fragmenstein_mode>  (946) 
expansion

>  <fragmenstein_error>  (946) 


$$$$
C2235-P42
     RDKit          3D

 56 58  0  0  0  0  0  0  0  0999 V2000
  -16.2120  -21.4333   31.0355 C   0  0  0  0  0  0  0  0  0  0  0  0
  -15.0871  -20.3653   30.7664 C   0  0  0  0  0  0  0  0  0  0  0  0
  -13.7076  -20.0987   29.4500 O   0  0  0  0  0  0  0  0  0  0  0  0
  -12.4597  -21.3004   28.7144 S   0  0  0  0  0  4  0  0  0  0  0  0
  -11.5782  -22.3535   29.7781 C   0  0  0  0  0  0  0  0  0  0  0  0
  -11.3727  -22.0771   31.5029 S   0  0  0  0  0  0  0  0  0  0  0  0
  -10.2642  -21.1986   31.7176 O   0  0  0  0  0  0  0  0  0  0  0  0
  -12.6179  -21.7441   32.1542 O   0  0  0  0  0  0  0  0  0  0  0  0
  -11.0788  -23.6137   32.0977 N   0  0  0  0  0  0  0  0  0  0  0  0
   -9.8400  -24.3371   32.1690 C   0  0  0  0  0  0  0  0  0  0  0  0
   -9.9609  -25.8241   31.9791 C   0  0  0  0  0  0  0  0  0  0  0  0
  -10.3372  -26.2324   30.5733 C   0  0  0  0  0  0  0  0  0  0  0  0
   -9.7566  -25.7063   29.5462 N   0  0  0  0  0  0  0  0  0  0  0  0
  -10.1724  -26.1190   28.3097 C   0  0  0  0  0  0  0  0  0  0  0  0
  -11.1676  -26.9657   28.0660 C   0  0  0  0  0  0  0  0  0  0  0  0
  -11.8293  -27.5244   29.2360 C   0  0  0  0  0  0  0  0  0  0  0  0
  -12.8594  -28.1770   29.1249 O   0  0  0  0  0  0  0  0  0  0  0  0
  -11.2700  -27.2136   30.4359 N   0  0  0  0  0  0  0  0  0  0  0  0
  -10.6014  -22.7386   28.6726 C   0  0  0  0  0  0  0  0  0  0  0  0
  -11.1637  -22.6640   27.2488 C   0  0  0  0  0  0  0  0  0  0  0  0
  -12.6620  -22.5116   27.1497 C   0  0  0  0  0  0  0  0  0  0  0  0
  -12.9672  -21.9976   25.7376 C   0  0  0  0  0  0  0  0  0  0  0  0
  -14.0152  -22.7534   24.9001 C   0  0  0  0  0  0  0  0  0  0  0  0
  -14.3697  -24.1580   25.3747 C   0  0  0  0  0  0  0  0  0  0  0  0
  -14.7174  -24.9607   24.2656 O   0  0  0  0  0  0  0  0  0  0  0  0
  -13.2302  -24.7937   26.1386 C   0  0  0  0  0  0  0  0  0  0  0  0
  -13.0470  -23.9922   27.4086 C   0  0  0  0  0  0  0  0  0  0  0  0
  -15.8034  -22.3925   31.3680 H   0  0  0  0  0  0  0  0  0  0  0  0
  -16.9302  -21.5908   30.2327 H   0  0  0  0  0  0  0  0  0  0  0  0
  -16.8072  -21.0757   31.8874 H   0  0  0  0  0  0  0  0  0  0  0  0
  -15.6409  -19.4373   30.6856 H   0  0  0  0  0  0  0  0  0  0  0  0
  -14.6552  -20.4349   31.7779 H   0  0  0  0  0  0  0  0  0  0  0  0
  -13.2482  -22.2823   29.0421 H   0  0  0  0  0  0  0  0  0  0  0  0
  -12.1154  -23.2972   29.8351 H   0  0  0  0  0  0  0  0  0  0  0  0
  -11.9343  -23.9690   32.5447 H   0  0  0  0  0  0  0  0  0  0  0  0
   -9.1348  -24.0574   31.4298 H   0  0  0  0  0  0  0  0  0  0  0  0
   -9.4044  -24.1540   33.1398 H   0  0  0  0  0  0  0  0  0  0  0  0
  -10.6250  -26.2121   32.7323 H   0  0  0  0  0  0  0  0  0  0  0  0
   -8.9784  -26.2746   32.1688 H   0  0  0  0  0  0  0  0  0  0  0  0
   -9.6772  -25.6520   27.4738 H   0  0  0  0  0  0  0  0  0  0  0  0
  -11.5025  -27.2437   27.0790 H   0  0  0  0  0  0  0  0  0  0  0  0
  -11.7300  -27.6073   31.2345 H   0  0  0  0  0  0  0  0  0  0  0  0
  -10.1326  -23.6935   28.8056 H   0  0  0  0  0  0  0  0  0  0  0  0
   -9.8473  -21.9791   28.6134 H   0  0  0  0  0  0  0  0  0  0  0  0
  -10.7538  -23.4645   26.6240 H   0  0  0  0  0  0  0  0  0  0  0  0
  -10.8576  -21.6750   26.9260 H   0  0  0  0  0  0  0  0  0  0  0  0
  -12.0569  -22.0510   25.1247 H   0  0  0  0  0  0  0  0  0  0  0  0
  -13.2015  -20.9514   25.7182 H   0  0  0  0  0  0  0  0  0  0  0  0
  -14.9364  -22.1625   24.8287 H   0  0  0  0  0  0  0  0  0  0  0  0
  -13.6553  -22.7941   23.8631 H   0  0  0  0  0  0  0  0  0  0  0  0
  -15.2616  -24.1076   26.0104 H   0  0  0  0  0  0  0  0  0  0  0  0
  -14.7122  -25.8995   24.5356 H   0  0  0  0  0  0  0  0  0  0  0  0
  -13.4826  -25.8314   26.3861 H   0  0  0  0  0  0  0  0  0  0  0  0
  -12.3086  -24.8384   25.5511 H   0  0  0  0  0  0  0  0  0  0  0  0
  -13.9717  -24.1143   27.9145 H   0  0  0  0  0  0  0  0  0  0  0  0
  -12.3467  -24.5175   28.0574 H   0  0  0  0  0  0  0  0  0  0  0  0
  1  2  1  0
  2  3  1  0
  3  4  1  0
  4  5  1  0
  5  6  1  0
  6  7  2  0
  6  8  2  0
  6  9  1  0
  9 10  1  0
 10 11  1  0
 11 12  1  0
 12 13  2  0
 13 14  1  0
 14 15  2  0
 15 16  1  0
 16 17  2  0
 16 18  1  0
  5 19  1  0
 19 20  1  0
 20 21  1  0
 21 22  1  0
 22 23  1  0
 23 24  1  0
 24 25  1  0
 24 26  1  0
 26 27  1  0
 21  4  1  0
 18 12  1  0
 27 21  1  0
  1 28  1  0
  1 29  1  0
  1 30  1  0
  2 31  1  0
  2 32  1  0
  4 33  1  0
  5 34  1  0
  9 35  1  0
 10 36  1  0
 10 37  1  0
 11 38  1  0
 11 39  1  0
 14 40  1  0
 15 41  1  0
 18 42  1  0
 19 43  1  0
 19 44  1  0
 20 45  1  0
 20 46  1  0
 22 47  1  0
 22 48  1  0
 23 49  1  0
 23 50  1  0
 24 51  1  0
 25 52  1  0
 26 53  1  0
 26 54  1  0
 27 55  1  0
 27 56  1  0
M  END
>  <Energy>  (947) 
248.59541403206489

>  <compound_id>  (947) 
2235

>  <target_id>  (947) 
1

>  <reference_id>  (947) 
42

>  <inspiration_ids>  (947) 
[42, 3]

>  <energy_score>  (947) 
203.90642179262534

>  <distance_score>  (947) 
4.018979636700007

>  <path>  (947) 
/opt/xchem-fragalysis-2/maxwin/BulkDock/SCRATCH/505732/C2235-P42/C2235-P42.minimised.mol

>  <scratch_subdir>  (947) 
/opt/xchem-fragalysis-2/maxwin/BulkDock/SCRATCH/505732/C2235-P42

>  <fragmenstein_runtime>  (947) 
11.439170122146606

>  <fragmenstein_outcome>  (947) 
too moved

>  <fragmenstein_mode>  (947) 
expansion

>  <fragmenstein_error>  (947) 


$$$$
C2235-P3
     RDKit          3D

 56 58  0  0  0  0  0  0  0  0999 V2000
  -12.5846  -28.8466   31.6637 C   0  0  0  0  0  0  0  0  0  0  0  0
  -12.1663  -28.3127   30.3102 C   0  0  0  0  0  0  0  0  0  0  0  0
  -12.4358  -26.9139   30.2725 O   0  0  0  0  0  0  0  0  0  0  0  0
  -11.9365  -26.0527   28.9928 S   0  0  0  0  0  4  0  0  0  0  0  0
  -11.3305  -24.6208   29.7608 C   0  0  0  0  0  0  0  0  0  0  0  0
  -10.3422  -24.4769   31.2662 S   0  0  0  0  0  0  0  0  0  0  0  0
   -8.9696  -24.3044   30.8572 O   0  0  0  0  0  0  0  0  0  0  0  0
  -10.7968  -25.4495   32.2278 O   0  0  0  0  0  0  0  0  0  0  0  0
  -10.6989  -22.9968   31.8998 N   0  0  0  0  0  0  0  0  0  0  0  0
   -9.7691  -22.1270   32.6028 C   0  0  0  0  0  0  0  0  0  0  0  0
  -10.2600  -20.7474   32.2228 C   0  0  0  0  0  0  0  0  0  0  0  0
  -10.6430  -20.6410   30.7486 C   0  0  0  0  0  0  0  0  0  0  0  0
  -11.3298  -19.6281   30.3669 N   0  0  0  0  0  0  0  0  0  0  0  0
  -11.6449  -19.5625   29.0425 C   0  0  0  0  0  0  0  0  0  0  0  0
  -11.3755  -20.4559   28.1006 C   0  0  0  0  0  0  0  0  0  0  0  0
  -10.5705  -21.5735   28.5267 C   0  0  0  0  0  0  0  0  0  0  0  0
  -10.3883  -22.5079   27.7633 O   0  0  0  0  0  0  0  0  0  0  0  0
  -10.1842  -21.5595   29.8320 N   0  0  0  0  0  0  0  0  0  0  0  0
  -12.4566  -23.6784   29.5309 C   0  0  0  0  0  0  0  0  0  0  0  0
  -13.8270  -24.4370   29.4723 C   0  0  0  0  0  0  0  0  0  0  0  0
  -13.5591  -25.3742   28.3461 C   0  0  0  0  0  0  0  0  0  0  0  0
  -14.5722  -26.4919   28.1068 C   0  0  0  0  0  0  0  0  0  0  0  0
  -14.2973  -27.1423   26.7464 C   0  0  0  0  0  0  0  0  0  0  0  0
  -12.9666  -26.6561   26.2000 C   0  0  0  0  0  0  0  0  0  0  0  0
  -12.6109  -27.2575   25.0168 O   0  0  0  0  0  0  0  0  0  0  0  0
  -12.9346  -25.1778   25.9698 C   0  0  0  0  0  0  0  0  0  0  0  0
  -13.6042  -24.4807   27.0771 C   0  0  0  0  0  0  0  0  0  0  0  0
  -13.6499  -28.6622   31.8378 H   0  0  0  0  0  0  0  0  0  0  0  0
  -12.0392  -28.3379   32.4655 H   0  0  0  0  0  0  0  0  0  0  0  0
  -12.3957  -29.9212   31.7350 H   0  0  0  0  0  0  0  0  0  0  0  0
  -11.0995  -28.4886   30.1441 H   0  0  0  0  0  0  0  0  0  0  0  0
  -12.7300  -28.8090   29.5138 H   0  0  0  0  0  0  0  0  0  0  0  0
  -11.0291  -26.6879   28.2175 H   0  0  0  0  0  0  0  0  0  0  0  0
  -10.6264  -24.2750   29.0387 H   0  0  0  0  0  0  0  0  0  0  0  0
  -11.6654  -22.7348   32.0933 H   0  0  0  0  0  0  0  0  0  0  0  0
   -8.7364  -22.2731   32.2751 H   0  0  0  0  0  0  0  0  0  0  0  0
   -9.8232  -22.2815   33.6827 H   0  0  0  0  0  0  0  0  0  0  0  0
   -9.5124  -19.9970   32.4708 H   0  0  0  0  0  0  0  0  0  0  0  0
  -11.1553  -20.4971   32.8070 H   0  0  0  0  0  0  0  0  0  0  0  0
  -12.2362  -18.7028   28.7880 H   0  0  0  0  0  0  0  0  0  0  0  0
  -11.6995  -20.3775   27.0754 H   0  0  0  0  0  0  0  0  0  0  0  0
   -9.5842  -22.3135   30.1413 H   0  0  0  0  0  0  0  0  0  0  0  0
  -12.3312  -23.2045   28.5728 H   0  0  0  0  0  0  0  0  0  0  0  0
  -12.2667  -22.8162   30.1321 H   0  0  0  0  0  0  0  0  0  0  0  0
  -14.7209  -23.8563   29.2533 H   0  0  0  0  0  0  0  0  0  0  0  0
  -14.0351  -24.9884   30.3968 H   0  0  0  0  0  0  0  0  0  0  0  0
  -15.5970  -26.0997   28.1161 H   0  0  0  0  0  0  0  0  0  0  0  0
  -14.5380  -27.2501   28.8949 H   0  0  0  0  0  0  0  0  0  0  0  0
  -14.3008  -28.2346   26.8404 H   0  0  0  0  0  0  0  0  0  0  0  0
  -15.1038  -26.9086   26.0398 H   0  0  0  0  0  0  0  0  0  0  0  0
  -12.1732  -26.9743   26.8525 H   0  0  0  0  0  0  0  0  0  0  0  0
  -12.2961  -28.1477   25.2763 H   0  0  0  0  0  0  0  0  0  0  0  0
  -13.4758  -24.9181   25.0555 H   0  0  0  0  0  0  0  0  0  0  0  0
  -11.8914  -24.8477   25.9186 H   0  0  0  0  0  0  0  0  0  0  0  0
  -13.2290  -23.4589   27.1001 H   0  0  0  0  0  0  0  0  0  0  0  0
  -14.6634  -24.3212   26.8172 H   0  0  0  0  0  0  0  0  0  0  0  0
  1  2  1  0
  2  3  1  0
  3  4  1  0
  4  5  1  0
  5  6  1  0
  6  7  2  0
  6  8  2  0
  6  9  1  0
  9 10  1  0
 10 11  1  0
 11 12  1  0
 12 13  2  0
 13 14  1  0
 14 15  2  0
 15 16  1  0
 16 17  2  0
 16 18  1  0
  5 19  1  0
 19 20  1  0
 20 21  1  0
 21 22  1  0
 22 23  1  0
 23 24  1  0
 24 25  1  0
 24 26  1  0
 26 27  1  0
 21  4  1  0
 18 12  1  0
 27 21  1  0
  1 28  1  0
  1 29  1  0
  1 30  1  0
  2 31  1  0
  2 32  1  0
  4 33  1  0
  5 34  1  0
  9 35  1  0
 10 36  1  0
 10 37  1  0
 11 38  1  0
 11 39  1  0
 14 40  1  0
 15 41  1  0
 18 42  1  0
 19 43  1  0
 19 44  1  0
 20 45  1  0
 20 46  1  0
 22 47  1  0
 22 48  1  0
 23 49  1  0
 23 50  1  0
 24 51  1  0
 25 52  1  0
 26 53  1  0
 26 54  1  0
 27 55  1  0
 27 56  1  0
M  END
>  <Energy>  (948) 
30.891546428302821

>  <compound_id>  (948) 
2235

>  <target_id>  (948) 
1

>  <reference_id>  (948) 
3

>  <inspiration_ids>  (948) 
[42, 3]

>  <energy_score>  (948) 
-15.259228503103088

>  <distance_score>  (948) 
3.3146106020029715

>  <path>  (948) 
/opt/xchem-fragalysis-2/maxwin/BulkDock/SCRATCH/505732/C2235-P3/C2235-P3.minimised.mol

>  <scratch_subdir>  (948) 
/opt/xchem-fragalysis-2/maxwin/BulkDock/SCRATCH/505732/C2235-P3

>  <fragmenstein_runtime>  (948) 
6.685357332229614

>  <fragmenstein_outcome>  (948) 
too moved

>  <fragmenstein_mode>  (948) 
expansion

>  <fragmenstein_error>  (948) 


$$$$
C2236-P42
     RDKit          3D

 57 59  0  0  0  0  0  0  0  0999 V2000
   -9.6392  -26.2657   32.1996 C   0  0  0  0  0  0  0  0  0  0  0  0
  -10.4289  -25.0304   32.2075 C   0  0  0  0  0  0  0  0  0  0  0  0
  -11.1498  -24.6448   33.2948 C   0  0  0  0  0  0  0  0  0  0  0  0
  -11.7239  -23.3965   33.2113 C   0  0  0  0  0  0  0  0  0  0  0  0
  -12.5197  -22.9456   34.2200 O   0  0  0  0  0  0  0  0  0  0  0  0
  -11.5770  -22.5672   32.1838 N   0  0  0  0  0  0  0  0  0  0  0  0
  -11.0696  -23.1601   31.1046 C   0  0  0  0  0  0  0  0  0  0  0  0
  -11.2358  -22.4739   29.7838 C   0  0  0  0  0  0  0  0  0  0  0  0
  -10.6569  -23.2989   28.5567 C   0  0  0  0  0  0  0  0  0  0  0  0
  -11.2519  -22.9891   27.2150 N   0  0  0  0  0  0  0  0  0  0  0  0
  -12.8247  -22.7366   27.4494 S   0  0  0  0  0  0  0  0  0  0  0  0
  -13.2561  -23.8215   28.2935 O   0  0  0  0  0  0  0  0  0  0  0  0
  -12.6895  -21.3735   27.8821 O   0  0  0  0  0  0  0  0  0  0  0  0
  -13.7684  -22.5662   26.1612 N   0  0  0  0  0  0  0  0  0  0  0  0
  -13.1463  -22.0357   24.9948 C   0  0  0  0  0  0  0  0  0  0  0  0
  -12.9434  -23.3364   24.2815 C   0  0  0  0  0  0  0  0  0  0  0  0
  -13.7728  -24.5473   25.0472 C   0  0  0  0  0  0  0  0  0  0  0  0
  -14.6456  -25.4404   24.1801 C   0  0  0  0  0  0  0  0  0  0  0  0
  -13.0565  -25.3693   26.0696 N   0  0  0  0  0  0  0  0  0  0  0  0
  -13.8790  -26.2864   26.8994 C   0  0  0  0  0  0  0  0  0  0  0  0
  -13.0965  -27.3057   27.7357 C   0  0  0  0  0  0  0  0  0  0  0  0
  -11.8173  -26.6632   28.1839 C   0  0  0  0  0  0  0  0  0  0  0  0
  -11.1299  -27.5081   29.0854 O   0  0  0  0  0  0  0  0  0  0  0  0
  -10.9657  -26.3739   26.9572 C   0  0  0  0  0  0  0  0  0  0  0  0
  -11.7528  -25.8965   25.7318 C   0  0  0  0  0  0  0  0  0  0  0  0
  -14.7102  -23.5639   25.6766 C   0  0  0  0  0  0  0  0  0  0  0  0
  -15.6702  -24.0572   26.5659 O   0  0  0  0  0  0  0  0  0  0  0  0
  -10.4401  -24.3486   31.0749 N   0  0  0  0  0  0  0  0  0  0  0  0
   -8.8076  -26.1932   31.4968 H   0  0  0  0  0  0  0  0  0  0  0  0
   -9.2187  -26.4181   33.1976 H   0  0  0  0  0  0  0  0  0  0  0  0
  -10.2850  -27.0907   31.8966 H   0  0  0  0  0  0  0  0  0  0  0  0
  -11.2473  -25.2641   34.1723 H   0  0  0  0  0  0  0  0  0  0  0  0
  -12.5509  -23.6314   34.9135 H   0  0  0  0  0  0  0  0  0  0  0  0
  -12.2947  -22.3531   29.7946 H   0  0  0  0  0  0  0  0  0  0  0  0
  -10.8377  -21.4533   29.7958 H   0  0  0  0  0  0  0  0  0  0  0  0
  -10.7486  -24.3588   28.7439 H   0  0  0  0  0  0  0  0  0  0  0  0
   -9.5902  -23.1484   28.3957 H   0  0  0  0  0  0  0  0  0  0  0  0
  -10.9610  -22.0278   27.0226 H   0  0  0  0  0  0  0  0  0  0  0  0
  -12.2248  -21.4716   25.1486 H   0  0  0  0  0  0  0  0  0  0  0  0
  -13.8443  -21.3869   24.4640 H   0  0  0  0  0  0  0  0  0  0  0  0
  -13.3321  -23.1746   23.2723 H   0  0  0  0  0  0  0  0  0  0  0  0
  -11.8575  -23.4777   24.2712 H   0  0  0  0  0  0  0  0  0  0  0  0
  -15.7050  -25.4528   24.4578 H   0  0  0  0  0  0  0  0  0  0  0  0
  -14.5564  -25.1387   23.1566 H   0  0  0  0  0  0  0  0  0  0  0  0
  -14.3205  -26.4751   24.2022 H   0  0  0  0  0  0  0  0  0  0  0  0
  -14.4235  -25.7218   27.6514 H   0  0  0  0  0  0  0  0  0  0  0  0
  -14.6746  -26.7795   26.3434 H   0  0  0  0  0  0  0  0  0  0  0  0
  -12.8292  -28.2184   27.2050 H   0  0  0  0  0  0  0  0  0  0  0  0
  -13.6977  -27.6468   28.5853 H   0  0  0  0  0  0  0  0  0  0  0  0
  -12.0638  -25.7717   28.7490 H   0  0  0  0  0  0  0  0  0  0  0  0
  -10.3676  -26.9995   29.4158 H   0  0  0  0  0  0  0  0  0  0  0  0
  -10.1894  -25.6545   27.2250 H   0  0  0  0  0  0  0  0  0  0  0  0
  -10.4155  -27.2710   26.6653 H   0  0  0  0  0  0  0  0  0  0  0  0
  -11.1256  -25.1451   25.2481 H   0  0  0  0  0  0  0  0  0  0  0  0
  -11.8487  -26.7202   25.0174 H   0  0  0  0  0  0  0  0  0  0  0  0
  -15.3322  -23.0890   24.8999 H   0  0  0  0  0  0  0  0  0  0  0  0
  -15.2522  -24.0933   27.4429 H   0  0  0  0  0  0  0  0  0  0  0  0
  1  2  1  0
  2  3  2  0
  3  4  1  0
  4  5  1  0
  4  6  2  0
  6  7  1  0
  7  8  1  0
  8  9  1  0
  9 10  1  0
 10 11  1  0
 11 12  2  0
 11 13  2  0
 11 14  1  0
 14 15  1  0
 15 16  1  0
 16 17  1  0
 17 18  1  0
 17 19  1  0
 19 20  1  0
 20 21  1  0
 21 22  1  0
 22 23  1  0
 22 24  1  0
 24 25  1  0
 17 26  1  0
 26 27  1  0
  7 28  2  0
 28  2  1  0
 26 14  1  0
 25 19  1  0
  1 29  1  0
  1 30  1  0
  1 31  1  0
  3 32  1  0
  5 33  1  0
  8 34  1  0
  8 35  1  0
  9 36  1  0
  9 37  1  0
 10 38  1  0
 15 39  1  0
 15 40  1  0
 16 41  1  0
 16 42  1  0
 18 43  1  0
 18 44  1  0
 18 45  1  0
 20 46  1  0
 20 47  1  0
 21 48  1  0
 21 49  1  0
 22 50  1  0
 23 51  1  0
 24 52  1  0
 24 53  1  0
 25 54  1  0
 25 55  1  0
 26 56  1  0
 27 57  1  0
M  END
>  <Energy>  (949) 
-106.57995491816681

>  <compound_id>  (949) 
2236

>  <target_id>  (949) 
1

>  <reference_id>  (949) 
42

>  <inspiration_ids>  (949) 
[42, 16]

>  <energy_score>  (949) 
23.888570890384813

>  <distance_score>  (949) 
2.8114879599869256

>  <path>  (949) 
/opt/xchem-fragalysis-2/maxwin/BulkDock/SCRATCH/505732/C2236-P42/C2236-P42.minimised.mol

>  <scratch_subdir>  (949) 
/opt/xchem-fragalysis-2/maxwin/BulkDock/SCRATCH/505732/C2236-P42

>  <fragmenstein_runtime>  (949) 
13.678219556808472

>  <fragmenstein_outcome>  (949) 
too moved

>  <fragmenstein_mode>  (949) 
expansion

>  <fragmenstein_error>  (949) 


$$$$
C2236-P16
     RDKit          3D

 57 59  0  0  0  0  0  0  0  0999 V2000
  -10.0166  -26.3250   31.3590 C   0  0  0  0  0  0  0  0  0  0  0  0
  -10.9268  -25.1708   31.5533 C   0  0  0  0  0  0  0  0  0  0  0  0
  -11.4364  -24.8248   32.7863 C   0  0  0  0  0  0  0  0  0  0  0  0
  -12.2998  -23.7589   32.7879 C   0  0  0  0  0  0  0  0  0  0  0  0
  -12.8973  -23.3435   33.9449 O   0  0  0  0  0  0  0  0  0  0  0  0
  -12.6162  -23.0547   31.6860 N   0  0  0  0  0  0  0  0  0  0  0  0
  -12.0687  -23.4929   30.5335 C   0  0  0  0  0  0  0  0  0  0  0  0
  -12.5023  -22.8827   29.2404 C   0  0  0  0  0  0  0  0  0  0  0  0
  -11.8471  -23.4572   27.9721 C   0  0  0  0  0  0  0  0  0  0  0  0
  -12.3224  -22.6873   26.8040 N   0  0  0  0  0  0  0  0  0  0  0  0
  -12.2406  -23.3053   25.2529 S   0  0  0  0  0  0  0  0  0  0  0  0
  -11.2454  -24.3551   25.3031 O   0  0  0  0  0  0  0  0  0  0  0  0
  -12.1944  -22.2508   24.2739 O   0  0  0  0  0  0  0  0  0  0  0  0
  -13.6829  -24.0048   25.0827 N   0  0  0  0  0  0  0  0  0  0  0  0
  -14.8710  -23.3781   24.5364 C   0  0  0  0  0  0  0  0  0  0  0  0
  -16.0226  -24.3044   24.9581 C   0  0  0  0  0  0  0  0  0  0  0  0
  -15.3433  -25.6611   24.9539 C   0  0  0  0  0  0  0  0  0  0  0  0
  -15.3699  -26.0407   23.4902 C   0  0  0  0  0  0  0  0  0  0  0  0
  -15.9559  -26.7826   25.6658 N   0  0  0  0  0  0  0  0  0  0  0  0
  -16.4442  -26.5353   27.0183 C   0  0  0  0  0  0  0  0  0  0  0  0
  -15.8792  -27.5403   28.0352 C   0  0  0  0  0  0  0  0  0  0  0  0
  -14.3516  -27.4667   27.9160 C   0  0  0  0  0  0  0  0  0  0  0  0
  -13.5779  -27.9976   28.9778 O   0  0  0  0  0  0  0  0  0  0  0  0
  -14.0040  -28.1671   26.6459 C   0  0  0  0  0  0  0  0  0  0  0  0
  -15.1243  -27.9992   25.6073 C   0  0  0  0  0  0  0  0  0  0  0  0
  -13.9349  -25.3303   25.4901 C   0  0  0  0  0  0  0  0  0  0  0  0
  -12.9537  -26.2108   24.9899 O   0  0  0  0  0  0  0  0  0  0  0  0
  -11.2266  -24.5173   30.4272 N   0  0  0  0  0  0  0  0  0  0  0  0
   -9.0600  -26.1119   31.8387 H   0  0  0  0  0  0  0  0  0  0  0  0
  -10.4771  -27.2321   31.7554 H   0  0  0  0  0  0  0  0  0  0  0  0
   -9.8397  -26.4975   30.2932 H   0  0  0  0  0  0  0  0  0  0  0  0
  -11.1837  -25.3745   33.6801 H   0  0  0  0  0  0  0  0  0  0  0  0
  -12.8255  -24.0369   34.6315 H   0  0  0  0  0  0  0  0  0  0  0  0
  -13.5727  -23.0877   29.1783 H   0  0  0  0  0  0  0  0  0  0  0  0
  -12.3378  -21.8012   29.2929 H   0  0  0  0  0  0  0  0  0  0  0  0
  -12.1122  -24.5138   27.8660 H   0  0  0  0  0  0  0  0  0  0  0  0
  -10.7571  -23.3742   28.0310 H   0  0  0  0  0  0  0  0  0  0  0  0
  -11.9660  -21.7291   26.7571 H   0  0  0  0  0  0  0  0  0  0  0  0
  -14.6936  -23.3234   23.4688 H   0  0  0  0  0  0  0  0  0  0  0  0
  -15.1046  -22.3695   24.8236 H   0  0  0  0  0  0  0  0  0  0  0  0
  -16.3860  -24.0815   25.9460 H   0  0  0  0  0  0  0  0  0  0  0  0
  -16.9017  -24.2152   24.3124 H   0  0  0  0  0  0  0  0  0  0  0  0
  -14.6627  -25.4440   22.9399 H   0  0  0  0  0  0  0  0  0  0  0  0
  -16.3859  -25.9971   23.0803 H   0  0  0  0  0  0  0  0  0  0  0  0
  -15.0588  -27.0541   23.2786 H   0  0  0  0  0  0  0  0  0  0  0  0
  -16.1756  -25.5423   27.3773 H   0  0  0  0  0  0  0  0  0  0  0  0
  -17.5378  -26.5960   27.0184 H   0  0  0  0  0  0  0  0  0  0  0  0
  -16.2349  -28.5614   27.8366 H   0  0  0  0  0  0  0  0  0  0  0  0
  -16.2975  -27.3581   29.0234 H   0  0  0  0  0  0  0  0  0  0  0  0
  -14.0376  -26.4325   27.9109 H   0  0  0  0  0  0  0  0  0  0  0  0
  -13.7607  -28.9551   29.0170 H   0  0  0  0  0  0  0  0  0  0  0  0
  -13.0028  -27.8689   26.3445 H   0  0  0  0  0  0  0  0  0  0  0  0
  -13.9049  -29.2442   26.8448 H   0  0  0  0  0  0  0  0  0  0  0  0
  -15.8193  -28.8442   25.7297 H   0  0  0  0  0  0  0  0  0  0  0  0
  -14.7222  -28.2063   24.6284 H   0  0  0  0  0  0  0  0  0  0  0  0
  -13.9056  -25.2879   26.5685 H   0  0  0  0  0  0  0  0  0  0  0  0
  -12.0958  -25.8360   25.2788 H   0  0  0  0  0  0  0  0  0  0  0  0
  1  2  1  0
  2  3  2  0
  3  4  1  0
  4  5  1  0
  4  6  2  0
  6  7  1  0
  7  8  1  0
  8  9  1  0
  9 10  1  0
 10 11  1  0
 11 12  2  0
 11 13  2  0
 11 14  1  0
 14 15  1  0
 15 16  1  0
 16 17  1  0
 17 18  1  0
 17 19  1  0
 19 20  1  0
 20 21  1  0
 21 22  1  0
 22 23  1  0
 22 24  1  0
 24 25  1  0
 17 26  1  0
 26 27  1  0
  7 28  2  0
 28  2  1  0
 26 14  1  0
 25 19  1  0
  1 29  1  0
  1 30  1  0
  1 31  1  0
  3 32  1  0
  5 33  1  0
  8 34  1  0
  8 35  1  0
  9 36  1  0
  9 37  1  0
 10 38  1  0
 15 39  1  0
 15 40  1  0
 16 41  1  0
 16 42  1  0
 18 43  1  0
 18 44  1  0
 18 45  1  0
 20 46  1  0
 20 47  1  0
 21 48  1  0
 21 49  1  0
 22 50  1  0
 23 51  1  0
 24 52  1  0
 24 53  1  0
 25 54  1  0
 25 55  1  0
 26 56  1  0
 27 57  1  0
M  END
>  <Energy>  (950) 
-166.30552895744594

>  <compound_id>  (950) 
2236

>  <target_id>  (950) 
1

>  <reference_id>  (950) 
16

>  <inspiration_ids>  (950) 
[42, 16]

>  <energy_score>  (950) 
-48.217332584899395

>  <distance_score>  (950) 
3.4442047497859116

>  <path>  (950) 
/opt/xchem-fragalysis-2/maxwin/BulkDock/SCRATCH/505732/C2236-P16/C2236-P16.minimised.mol

>  <scratch_subdir>  (950) 
/opt/xchem-fragalysis-2/maxwin/BulkDock/SCRATCH/505732/C2236-P16

>  <fragmenstein_runtime>  (950) 
8.318918466567993

>  <fragmenstein_outcome>  (950) 
too moved

>  <fragmenstein_mode>  (950) 
expansion

>  <fragmenstein_error>  (950) 


$$$$
C2237-P42
     RDKit          3D

 64 67  0  0  0  0  0  0  0  0999 V2000
  -10.1666  -25.9921   30.3979 C   0  0  0  0  0  0  0  0  0  0  0  0
  -10.1273  -25.2693   29.0616 C   0  0  0  0  0  0  0  0  0  0  0  0
  -10.9790  -25.8407   28.0700 O   0  0  0  0  0  0  0  0  0  0  0  0
  -12.3568  -25.6420   28.3394 C   0  0  0  0  0  0  0  0  0  0  0  0
  -13.1494  -24.7949   27.3887 C   0  0  0  0  0  0  0  0  0  0  0  0
  -12.6355  -24.7157   25.7119 S   0  0  0  0  0  0  0  0  0  0  0  0
  -13.8435  -24.4122   24.9560 O   0  0  0  0  0  0  0  0  0  0  0  0
  -11.8029  -25.8455   25.3603 O   0  0  0  0  0  0  0  0  0  0  0  0
  -11.6988  -23.3542   25.5858 N   0  0  0  0  0  0  0  0  0  0  0  0
  -12.2540  -21.9997   25.8265 C   0  0  0  0  0  0  0  0  0  0  0  0
  -12.3630  -21.1428   24.5633 C   0  0  0  0  0  0  0  0  0  0  0  0
  -11.4025  -19.9962   24.2759 C   0  0  0  0  0  0  0  0  0  0  0  0
  -10.2998  -20.1282   23.5172 N   0  0  0  0  0  0  0  0  0  0  0  0
   -9.5163  -18.8300   23.6099 C   0  0  0  0  0  0  0  0  0  0  0  0
   -7.8468  -18.8250   22.8435 C   0  0  0  0  0  0  0  0  0  0  0  0
  -10.1674  -17.2656   24.2520 C   0  0  0  0  0  0  0  0  0  0  0  0
  -11.3867  -16.9919   24.3287 C   0  0  0  0  0  0  0  0  0  0  0  0
  -12.3341  -16.2850   23.7361 O   0  0  0  0  0  0  0  0  0  0  0  0
  -11.5177  -18.2205   24.8450 N   0  0  0  0  0  0  0  0  0  0  0  0
  -14.5185  -25.3322   27.5007 N   0  0  0  0  0  0  0  0  0  0  0  0
  -14.3878  -26.7217   27.7717 N   0  0  0  0  0  0  0  0  0  0  0  0
  -15.6876  -27.1188   28.3803 C   0  0  0  0  0  0  0  0  0  0  0  0
  -16.6412  -27.6165   27.2861 C   0  0  0  0  0  0  0  0  0  0  0  0
  -17.7623  -28.2381   27.9355 O   0  0  0  0  0  0  0  0  0  0  0  0
  -17.4916  -28.2835   29.3390 C   0  0  0  0  0  0  0  0  0  0  0  0
  -15.9751  -28.1095   29.5163 C   0  0  0  0  0  0  0  0  0  0  0  0
  -15.3231  -29.4917   29.5866 C   0  0  0  0  0  0  0  0  0  0  0  0
  -13.7953  -29.5390   29.6908 C   0  0  0  0  0  0  0  0  0  0  0  0
  -13.4236  -30.8265   30.1746 O   0  0  0  0  0  0  0  0  0  0  0  0
  -13.1651  -29.3722   28.3292 C   0  0  0  0  0  0  0  0  0  0  0  0
  -12.4403  -28.0529   28.1428 C   0  0  0  0  0  0  0  0  0  0  0  0
  -13.1967  -26.8724   28.5622 N   0  0  0  0  0  0  0  0  0  0  0  0
   -9.4206  -25.5747   31.0808 H   0  0  0  0  0  0  0  0  0  0  0  0
  -11.1421  -25.9115   30.8800 H   0  0  0  0  0  0  0  0  0  0  0  0
   -9.9646  -27.0593   30.2667 H   0  0  0  0  0  0  0  0  0  0  0  0
  -10.3749  -24.2109   29.1718 H   0  0  0  0  0  0  0  0  0  0  0  0
   -9.1147  -25.3299   28.6719 H   0  0  0  0  0  0  0  0  0  0  0  0
  -12.4113  -25.0859   29.2784 H   0  0  0  0  0  0  0  0  0  0  0  0
  -13.1668  -23.7618   27.7413 H   0  0  0  0  0  0  0  0  0  0  0  0
  -10.9517  -23.4474   24.8903 H   0  0  0  0  0  0  0  0  0  0  0  0
  -11.6731  -21.5283   26.6184 H   0  0  0  0  0  0  0  0  0  0  0  0
  -13.2586  -22.1145   26.2437 H   0  0  0  0  0  0  0  0  0  0  0  0
  -12.3578  -21.7929   23.6789 H   0  0  0  0  0  0  0  0  0  0  0  0
  -13.3669  -20.7330   24.6175 H   0  0  0  0  0  0  0  0  0  0  0  0
   -7.8345  -18.1876   21.9579 H   0  0  0  0  0  0  0  0  0  0  0  0
   -7.6188  -19.8542   22.6484 H   0  0  0  0  0  0  0  0  0  0  0  0
   -6.9745  -18.4711   23.3960 H   0  0  0  0  0  0  0  0  0  0  0  0
   -9.7122  -16.8168   25.1849 H   0  0  0  0  0  0  0  0  0  0  0  0
  -11.8634  -15.8267   23.0288 H   0  0  0  0  0  0  0  0  0  0  0  0
  -14.9944  -25.1766   26.5994 H   0  0  0  0  0  0  0  0  0  0  0  0
  -16.1524  -26.1994   28.7796 H   0  0  0  0  0  0  0  0  0  0  0  0
  -16.1881  -28.3838   26.6567 H   0  0  0  0  0  0  0  0  0  0  0  0
  -17.0054  -26.8084   26.6438 H   0  0  0  0  0  0  0  0  0  0  0  0
  -18.0339  -27.4523   29.8053 H   0  0  0  0  0  0  0  0  0  0  0  0
  -17.8846  -29.2155   29.7569 H   0  0  0  0  0  0  0  0  0  0  0  0
  -15.8456  -27.6479   30.4950 H   0  0  0  0  0  0  0  0  0  0  0  0
  -15.7261  -29.9984   30.4765 H   0  0  0  0  0  0  0  0  0  0  0  0
  -15.6657  -30.1219   28.7539 H   0  0  0  0  0  0  0  0  0  0  0  0
  -13.4050  -28.8402   30.4270 H   0  0  0  0  0  0  0  0  0  0  0  0
  -13.7735  -31.5027   29.5686 H   0  0  0  0  0  0  0  0  0  0  0  0
  -12.4895  -30.1967   28.0824 H   0  0  0  0  0  0  0  0  0  0  0  0
  -13.9693  -29.4874   27.6250 H   0  0  0  0  0  0  0  0  0  0  0  0
  -12.0955  -27.9734   27.1063 H   0  0  0  0  0  0  0  0  0  0  0  0
  -11.5483  -28.0994   28.7721 H   0  0  0  0  0  0  0  0  0  0  0  0
  1  2  1  0
  2  3  1  0
  3  4  1  0
  4  5  1  0
  5  6  1  0
  6  7  2  0
  6  8  2  0
  6  9  1  0
  9 10  1  0
 10 11  1  0
 11 12  1  0
 12 13  2  0
 13 14  1  0
 14 15  1  0
 14 16  2  0
 16 17  1  0
 17 18  1  0
 17 19  2  0
  5 20  1  0
 20 21  1  0
 21 22  1  0
 22 23  1  0
 23 24  1  0
 24 25  1  0
 25 26  1  0
 26 27  1  0
 27 28  1  0
 28 29  1  0
 28 30  1  0
 30 31  1  0
 31 32  1  0
 32  4  1  0
 19 12  1  0
 32 21  1  0
 26 22  1  0
  1 33  1  0
  1 34  1  0
  1 35  1  0
  2 36  1  0
  2 37  1  0
  4 38  1  0
  5 39  1  0
  9 40  1  0
 10 41  1  0
 10 42  1  0
 11 43  1  0
 11 44  1  0
 15 45  1  0
 15 46  1  0
 15 47  1  0
 16 48  1  0
 18 49  1  0
 20 50  1  0
 22 51  1  0
 23 52  1  0
 23 53  1  0
 25 54  1  0
 25 55  1  0
 26 56  1  0
 27 57  1  0
 27 58  1  0
 28 59  1  0
 29 60  1  0
 30 61  1  0
 30 62  1  0
 31 63  1  0
 31 64  1  0
M  END
>  <Energy>  (951) 
346.84498946842149

>  <compound_id>  (951) 
2237

>  <target_id>  (951) 
1

>  <reference_id>  (951) 
42

>  <inspiration_ids>  (951) 
[42, 32]

>  <energy_score>  (951) 
217.73431951414796

>  <distance_score>  (951) 
4.550165242890689

>  <path>  (951) 
/opt/xchem-fragalysis-2/maxwin/BulkDock/SCRATCH/505732/C2237-P42/C2237-P42.minimised.mol

>  <scratch_subdir>  (951) 
/opt/xchem-fragalysis-2/maxwin/BulkDock/SCRATCH/505732/C2237-P42

>  <fragmenstein_runtime>  (951) 
19.384666681289673

>  <fragmenstein_outcome>  (951) 
too moved

>  <fragmenstein_mode>  (951) 
expansion

>  <fragmenstein_error>  (951) 


$$$$
C2237-P32
     RDKit          3D

 64 67  0  0  0  0  0  0  0  0999 V2000
   -9.0749  -24.1380   30.8401 C   0  0  0  0  0  0  0  0  0  0  0  0
   -9.1086  -24.4622   29.3534 C   0  0  0  0  0  0  0  0  0  0  0  0
  -10.0558  -25.4799   29.0314 O   0  0  0  0  0  0  0  0  0  0  0  0
  -11.4000  -25.0944   29.2166 C   0  0  0  0  0  0  0  0  0  0  0  0
  -12.0097  -24.1136   28.2215 C   0  0  0  0  0  0  0  0  0  0  0  0
  -11.6397  -24.5168   26.4532 S   0  0  0  0  0  0  0  0  0  0  0  0
  -12.9351  -24.8072   25.8605 O   0  0  0  0  0  0  0  0  0  0  0  0
  -10.5568  -25.4640   26.2866 O   0  0  0  0  0  0  0  0  0  0  0  0
  -11.0649  -23.1325   25.6792 N   0  0  0  0  0  0  0  0  0  0  0  0
  -11.8512  -21.8843   25.6282 C   0  0  0  0  0  0  0  0  0  0  0  0
  -11.9463  -20.9926   24.2928 C   0  0  0  0  0  0  0  0  0  0  0  0
  -11.4083  -19.5459   23.9508 C   0  0  0  0  0  0  0  0  0  0  0  0
  -10.3245  -19.6025   23.1322 N   0  0  0  0  0  0  0  0  0  0  0  0
   -9.6475  -18.2242   23.0352 C   0  0  0  0  0  0  0  0  0  0  0  0
   -8.0145  -18.2171   22.1874 C   0  0  0  0  0  0  0  0  0  0  0  0
  -10.4572  -16.6565   23.5110 C   0  0  0  0  0  0  0  0  0  0  0  0
  -11.6822  -16.4903   23.7592 C   0  0  0  0  0  0  0  0  0  0  0  0
  -12.7518  -15.9942   23.1183 O   0  0  0  0  0  0  0  0  0  0  0  0
  -11.6428  -17.6973   24.3378 N   0  0  0  0  0  0  0  0  0  0  0  0
  -13.4814  -24.2690   28.5904 N   0  0  0  0  0  0  0  0  0  0  0  0
  -13.5994  -25.6462   28.9101 N   0  0  0  0  0  0  0  0  0  0  0  0
  -14.8018  -26.1666   29.5834 C   0  0  0  0  0  0  0  0  0  0  0  0
  -15.7402  -25.2680   30.3853 C   0  0  0  0  0  0  0  0  0  0  0  0
  -17.0601  -25.3431   29.8166 O   0  0  0  0  0  0  0  0  0  0  0  0
  -16.9198  -25.9039   28.5092 C   0  0  0  0  0  0  0  0  0  0  0  0
  -15.7480  -26.8574   28.5972 C   0  0  0  0  0  0  0  0  0  0  0  0
  -15.1803  -27.1762   27.2217 C   0  0  0  0  0  0  0  0  0  0  0  0
  -14.0819  -28.2374   27.2000 C   0  0  0  0  0  0  0  0  0  0  0  0
  -14.7296  -29.4926   26.9680 O   0  0  0  0  0  0  0  0  0  0  0  0
  -13.1363  -28.4400   28.3939 C   0  0  0  0  0  0  0  0  0  0  0  0
  -12.0501  -27.3680   28.5568 C   0  0  0  0  0  0  0  0  0  0  0  0
  -12.3846  -26.1988   29.3804 N   0  0  0  0  0  0  0  0  0  0  0  0
   -8.1948  -23.5406   31.0864 H   0  0  0  0  0  0  0  0  0  0  0  0
   -9.9457  -23.5513   31.1473 H   0  0  0  0  0  0  0  0  0  0  0  0
   -9.0664  -25.0526   31.4407 H   0  0  0  0  0  0  0  0  0  0  0  0
   -9.3000  -23.5612   28.7605 H   0  0  0  0  0  0  0  0  0  0  0  0
   -8.1343  -24.8453   29.0426 H   0  0  0  0  0  0  0  0  0  0  0  0
  -11.4428  -24.6064   30.1917 H   0  0  0  0  0  0  0  0  0  0  0  0
  -11.6845  -23.0832   28.3903 H   0  0  0  0  0  0  0  0  0  0  0  0
  -10.1261  -23.1639   25.2815 H   0  0  0  0  0  0  0  0  0  0  0  0
  -11.5455  -21.2826   26.4922 H   0  0  0  0  0  0  0  0  0  0  0  0
  -12.8535  -22.3027   25.7807 H   0  0  0  0  0  0  0  0  0  0  0  0
  -11.4692  -21.6294   23.5306 H   0  0  0  0  0  0  0  0  0  0  0  0
  -12.9908  -21.0305   23.9835 H   0  0  0  0  0  0  0  0  0  0  0  0
   -8.0789  -17.7245   21.2155 H   0  0  0  0  0  0  0  0  0  0  0  0
   -7.6823  -19.2398   22.1000 H   0  0  0  0  0  0  0  0  0  0  0  0
   -7.1637  -17.7202   22.6545 H   0  0  0  0  0  0  0  0  0  0  0  0
   -9.9842  -16.0017   24.3073 H   0  0  0  0  0  0  0  0  0  0  0  0
  -12.4254  -15.6629   22.2692 H   0  0  0  0  0  0  0  0  0  0  0  0
  -13.9887  -24.1355   27.7026 H   0  0  0  0  0  0  0  0  0  0  0  0
  -14.4717  -26.9227   30.3091 H   0  0  0  0  0  0  0  0  0  0  0  0
  -15.8182  -25.6021   31.4257 H   0  0  0  0  0  0  0  0  0  0  0  0
  -15.4241  -24.2310   30.4064 H   0  0  0  0  0  0  0  0  0  0  0  0
  -17.8498  -26.4088   28.2314 H   0  0  0  0  0  0  0  0  0  0  0  0
  -16.7392  -25.0975   27.7906 H   0  0  0  0  0  0  0  0  0  0  0  0
  -16.1022  -27.7884   29.0619 H   0  0  0  0  0  0  0  0  0  0  0  0
  -16.0062  -27.5069   26.5762 H   0  0  0  0  0  0  0  0  0  0  0  0
  -14.8106  -26.2596   26.7525 H   0  0  0  0  0  0  0  0  0  0  0  0
  -13.4919  -28.0353   26.3068 H   0  0  0  0  0  0  0  0  0  0  0  0
  -15.2173  -29.7322   27.7746 H   0  0  0  0  0  0  0  0  0  0  0  0
  -13.6849  -28.6232   29.3236 H   0  0  0  0  0  0  0  0  0  0  0  0
  -12.6216  -29.3989   28.2386 H   0  0  0  0  0  0  0  0  0  0  0  0
  -11.1982  -27.8605   29.0307 H   0  0  0  0  0  0  0  0  0  0  0  0
  -11.7222  -27.0718   27.5646 H   0  0  0  0  0  0  0  0  0  0  0  0
  1  2  1  0
  2  3  1  0
  3  4  1  0
  4  5  1  0
  5  6  1  0
  6  7  2  0
  6  8  2  0
  6  9  1  0
  9 10  1  0
 10 11  1  0
 11 12  1  0
 12 13  2  0
 13 14  1  0
 14 15  1  0
 14 16  2  0
 16 17  1  0
 17 18  1  0
 17 19  2  0
  5 20  1  0
 20 21  1  0
 21 22  1  0
 22 23  1  0
 23 24  1  0
 24 25  1  0
 25 26  1  0
 26 27  1  0
 27 28  1  0
 28 29  1  0
 28 30  1  0
 30 31  1  0
 31 32  1  0
 32  4  1  0
 19 12  1  0
 32 21  1  0
 26 22  1  0
  1 33  1  0
  1 34  1  0
  1 35  1  0
  2 36  1  0
  2 37  1  0
  4 38  1  0
  5 39  1  0
  9 40  1  0
 10 41  1  0
 10 42  1  0
 11 43  1  0
 11 44  1  0
 15 45  1  0
 15 46  1  0
 15 47  1  0
 16 48  1  0
 18 49  1  0
 20 50  1  0
 22 51  1  0
 23 52  1  0
 23 53  1  0
 25 54  1  0
 25 55  1  0
 26 56  1  0
 27 57  1  0
 27 58  1  0
 28 59  1  0
 29 60  1  0
 30 61  1  0
 30 62  1  0
 31 63  1  0
 31 64  1  0
M  END
>  <Energy>  (952) 
404.07943088688086

>  <compound_id>  (952) 
2237

>  <target_id>  (952) 
1

>  <reference_id>  (952) 
32

>  <inspiration_ids>  (952) 
[42, 32]

>  <energy_score>  (952) 
274.968760932608

>  <distance_score>  (952) 
4.021918106592025

>  <path>  (952) 
/opt/xchem-fragalysis-2/maxwin/BulkDock/SCRATCH/505732/C2237-P32/C2237-P32.minimised.mol

>  <scratch_subdir>  (952) 
/opt/xchem-fragalysis-2/maxwin/BulkDock/SCRATCH/505732/C2237-P32

>  <fragmenstein_runtime>  (952) 
20.2681987285614

>  <fragmenstein_outcome>  (952) 
too moved

>  <fragmenstein_mode>  (952) 
expansion

>  <fragmenstein_error>  (952) 


$$$$
C2238-P42
     RDKit          3D

 52 54  0  0  0  0  0  0  0  0999 V2000
  -11.7000  -22.6844   27.3715 C   0  0  0  0  0  0  0  0  0  0  0  0
  -11.4907  -23.3704   28.6856 C   0  0  0  0  0  0  0  0  0  0  0  0
  -10.4336  -24.3097   28.5114 O   0  0  0  0  0  0  0  0  0  0  0  0
  -10.5721  -25.3080   29.4316 C   0  0  0  0  0  0  0  0  0  0  0  0
  -10.9979  -26.5530   29.1375 C   0  0  0  0  0  0  0  0  0  0  0  0
  -11.7084  -26.9733   27.6130 S   0  0  0  0  0  0  0  0  0  0  0  0
  -11.2683  -26.1554   26.5073 O   0  0  0  0  0  0  0  0  0  0  0  0
  -11.7556  -28.4161   27.4713 O   0  0  0  0  0  0  0  0  0  0  0  0
  -13.3767  -26.7240   27.8528 N   0  0  0  0  0  0  0  0  0  0  0  0
  -13.9855  -25.5739   27.2021 C   0  0  0  0  0  0  0  0  0  0  0  0
  -14.2140  -25.7742   25.7210 C   0  0  0  0  0  0  0  0  0  0  0  0
  -14.4142  -24.4225   25.1470 C   0  0  0  0  0  0  0  0  0  0  0  0
  -15.6729  -23.9715   25.0507 N   0  0  0  0  0  0  0  0  0  0  0  0
  -15.8080  -22.6908   24.7037 C   0  0  0  0  0  0  0  0  0  0  0  0
  -17.1848  -22.1255   24.5947 C   0  0  0  0  0  0  0  0  0  0  0  0
  -14.7222  -21.8971   24.4438 C   0  0  0  0  0  0  0  0  0  0  0  0
  -13.4937  -22.4579   24.5400 C   0  0  0  0  0  0  0  0  0  0  0  0
  -12.3786  -21.7542   24.2433 O   0  0  0  0  0  0  0  0  0  0  0  0
  -13.3047  -23.7070   24.9077 N   0  0  0  0  0  0  0  0  0  0  0  0
  -11.1078  -27.4560   30.1766 N   0  0  0  0  0  0  0  0  0  0  0  0
  -11.2440  -27.0217   31.4357 N   0  0  0  0  0  0  0  0  0  0  0  0
  -11.0091  -25.7632   31.6997 C   0  0  0  0  0  0  0  0  0  0  0  0
  -10.8977  -25.2516   33.1149 C   0  0  0  0  0  0  0  0  0  0  0  0
   -9.6581  -26.0064   33.5294 C   0  0  0  0  0  0  0  0  0  0  0  0
   -9.0921  -25.5307   34.7303 O   0  0  0  0  0  0  0  0  0  0  0  0
   -8.6843  -26.0568   32.3327 C   0  0  0  0  0  0  0  0  0  0  0  0
   -8.9909  -24.9739   31.3028 C   0  0  0  0  0  0  0  0  0  0  0  0
  -10.3579  -24.9865   30.7853 N   0  0  0  0  0  0  0  0  0  0  0  0
  -12.7182  -22.2996   27.2913 H   0  0  0  0  0  0  0  0  0  0  0  0
  -11.0469  -21.8181   27.3246 H   0  0  0  0  0  0  0  0  0  0  0  0
  -11.4670  -23.3438   26.5358 H   0  0  0  0  0  0  0  0  0  0  0  0
  -11.2591  -22.6398   29.4663 H   0  0  0  0  0  0  0  0  0  0  0  0
  -12.4131  -23.8752   28.9743 H   0  0  0  0  0  0  0  0  0  0  0  0
  -13.8427  -27.6054   27.6197 H   0  0  0  0  0  0  0  0  0  0  0  0
  -13.4154  -24.6791   27.4200 H   0  0  0  0  0  0  0  0  0  0  0  0
  -14.9640  -25.4373   27.6741 H   0  0  0  0  0  0  0  0  0  0  0  0
  -15.1030  -26.3883   25.5451 H   0  0  0  0  0  0  0  0  0  0  0  0
  -13.3656  -26.2354   25.2139 H   0  0  0  0  0  0  0  0  0  0  0  0
  -17.9293  -22.8479   24.9450 H   0  0  0  0  0  0  0  0  0  0  0  0
  -17.2857  -21.2206   25.2013 H   0  0  0  0  0  0  0  0  0  0  0  0
  -17.4152  -21.8795   23.5536 H   0  0  0  0  0  0  0  0  0  0  0  0
  -14.8626  -20.8725   24.1800 H   0  0  0  0  0  0  0  0  0  0  0  0
  -11.6827  -22.4347   24.2918 H   0  0  0  0  0  0  0  0  0  0  0  0
  -11.6059  -28.3112   29.9263 H   0  0  0  0  0  0  0  0  0  0  0  0
  -10.7771  -24.1658   33.0974 H   0  0  0  0  0  0  0  0  0  0  0  0
  -11.7058  -25.4566   33.7958 H   0  0  0  0  0  0  0  0  0  0  0  0
   -9.9795  -27.0047   33.7983 H   0  0  0  0  0  0  0  0  0  0  0  0
   -8.2970  -26.0539   34.9209 H   0  0  0  0  0  0  0  0  0  0  0  0
   -7.6632  -26.0469   32.6566 H   0  0  0  0  0  0  0  0  0  0  0  0
   -8.7858  -26.9625   31.7363 H   0  0  0  0  0  0  0  0  0  0  0  0
   -8.8428  -24.0548   31.8496 H   0  0  0  0  0  0  0  0  0  0  0  0
   -8.3562  -25.1518   30.4526 H   0  0  0  0  0  0  0  0  0  0  0  0
  1  2  1  0
  2  3  1  0
  3  4  1  0
  4  5  2  0
  5  6  1  0
  6  7  2  0
  6  8  2  0
  6  9  1  0
  9 10  1  0
 10 11  1  0
 11 12  1  0
 12 13  2  0
 13 14  1  0
 14 15  1  0
 14 16  2  0
 16 17  1  0
 17 18  1  0
 17 19  2  0
  5 20  1  0
 20 21  1  0
 21 22  2  0
 22 23  1  0
 23 24  1  0
 24 25  1  0
 24 26  1  0
 26 27  1  0
 27 28  1  0
 28  4  1  0
 19 12  1  0
 28 22  1  0
  1 29  1  0
  1 30  1  0
  1 31  1  0
  2 32  1  0
  2 33  1  0
  9 34  1  0
 10 35  1  0
 10 36  1  0
 11 37  1  0
 11 38  1  0
 15 39  1  0
 15 40  1  0
 15 41  1  0
 16 42  1  0
 18 43  1  0
 20 44  1  0
 23 45  1  0
 23 46  1  0
 24 47  1  0
 25 48  1  0
 26 49  1  0
 26 50  1  0
 27 51  1  0
 27 52  1  0
M  END
>  <Energy>  (953) 
32.943672774111697

>  <compound_id>  (953) 
2238

>  <target_id>  (953) 
1

>  <reference_id>  (953) 
42

>  <inspiration_ids>  (953) 
[42, 34]

>  <energy_score>  (953) 
13.369568307974305

>  <distance_score>  (953) 
1.5104238745059977

>  <path>  (953) 
/opt/xchem-fragalysis-2/maxwin/BulkDock/SCRATCH/505732/C2238-P42/C2238-P42.minimised.mol

>  <scratch_subdir>  (953) 
/opt/xchem-fragalysis-2/maxwin/BulkDock/SCRATCH/505732/C2238-P42

>  <fragmenstein_runtime>  (953) 
7.765994548797607

>  <fragmenstein_outcome>  (953) 
too moved

>  <fragmenstein_mode>  (953) 
expansion

>  <fragmenstein_error>  (953) 


$$$$
C2238-P34
     RDKit          3D

 52 54  0  0  0  0  0  0  0  0999 V2000
  -11.3252  -22.8003   27.3008 C   0  0  0  0  0  0  0  0  0  0  0  0
  -10.6988  -22.8017   28.6675 C   0  0  0  0  0  0  0  0  0  0  0  0
   -9.7252  -23.8382   28.7207 O   0  0  0  0  0  0  0  0  0  0  0  0
   -9.8809  -24.5553   29.8698 C   0  0  0  0  0  0  0  0  0  0  0  0
  -10.3599  -25.8045   29.8973 C   0  0  0  0  0  0  0  0  0  0  0  0
  -10.7475  -26.6978   28.5115 S   0  0  0  0  0  0  0  0  0  0  0  0
   -9.9673  -26.2608   27.3735 O   0  0  0  0  0  0  0  0  0  0  0  0
  -10.7143  -28.0980   28.9325 O   0  0  0  0  0  0  0  0  0  0  0  0
  -12.4385  -26.6432   28.1356 N   0  0  0  0  0  0  0  0  0  0  0  0
  -12.7526  -25.7704   27.0017 C   0  0  0  0  0  0  0  0  0  0  0  0
  -14.0132  -26.1904   26.2382 C   0  0  0  0  0  0  0  0  0  0  0  0
  -14.4858  -24.9855   25.4889 C   0  0  0  0  0  0  0  0  0  0  0  0
  -15.8026  -24.6830   25.4457 N   0  0  0  0  0  0  0  0  0  0  0  0
  -16.1293  -23.4292   25.0569 C   0  0  0  0  0  0  0  0  0  0  0  0
  -17.5533  -22.9967   25.0644 C   0  0  0  0  0  0  0  0  0  0  0  0
  -15.1607  -22.5395   24.6696 C   0  0  0  0  0  0  0  0  0  0  0  0
  -13.8814  -23.0279   24.5594 C   0  0  0  0  0  0  0  0  0  0  0  0
  -12.8954  -22.2837   24.0006 O   0  0  0  0  0  0  0  0  0  0  0  0
  -13.5157  -24.2170   24.9902 N   0  0  0  0  0  0  0  0  0  0  0  0
  -10.4478  -26.4364   31.1110 N   0  0  0  0  0  0  0  0  0  0  0  0
  -10.6416  -25.7074   32.2089 N   0  0  0  0  0  0  0  0  0  0  0  0
  -10.1549  -24.5032   32.2018 C   0  0  0  0  0  0  0  0  0  0  0  0
   -9.7970  -23.9066   33.5252 C   0  0  0  0  0  0  0  0  0  0  0  0
   -8.5495  -24.7637   33.8277 C   0  0  0  0  0  0  0  0  0  0  0  0
   -7.7684  -24.1211   34.8085 O   0  0  0  0  0  0  0  0  0  0  0  0
   -7.7438  -25.0939   32.5444 C   0  0  0  0  0  0  0  0  0  0  0  0
   -8.0576  -24.0764   31.4456 C   0  0  0  0  0  0  0  0  0  0  0  0
   -9.4926  -23.9926   31.1023 N   0  0  0  0  0  0  0  0  0  0  0  0
  -11.3545  -21.7749   26.9390 H   0  0  0  0  0  0  0  0  0  0  0  0
  -10.8327  -23.4553   26.5792 H   0  0  0  0  0  0  0  0  0  0  0  0
  -12.3745  -23.0503   27.3750 H   0  0  0  0  0  0  0  0  0  0  0  0
  -10.1825  -21.8515   28.8354 H   0  0  0  0  0  0  0  0  0  0  0  0
  -11.4747  -22.8853   29.4386 H   0  0  0  0  0  0  0  0  0  0  0  0
  -12.6774  -27.6059   27.9042 H   0  0  0  0  0  0  0  0  0  0  0  0
  -11.9302  -25.7055   26.2848 H   0  0  0  0  0  0  0  0  0  0  0  0
  -12.9019  -24.8052   27.4499 H   0  0  0  0  0  0  0  0  0  0  0  0
  -14.7896  -26.5848   26.8983 H   0  0  0  0  0  0  0  0  0  0  0  0
  -13.7904  -26.9589   25.5012 H   0  0  0  0  0  0  0  0  0  0  0  0
  -17.7321  -22.2527   25.8439 H   0  0  0  0  0  0  0  0  0  0  0  0
  -17.8318  -22.5731   24.0939 H   0  0  0  0  0  0  0  0  0  0  0  0
  -18.2114  -23.8504   25.2564 H   0  0  0  0  0  0  0  0  0  0  0  0
  -15.3916  -21.4975   24.5067 H   0  0  0  0  0  0  0  0  0  0  0  0
  -12.0920  -22.6635   24.3916 H   0  0  0  0  0  0  0  0  0  0  0  0
  -10.9242  -27.3296   31.0458 H   0  0  0  0  0  0  0  0  0  0  0  0
   -9.5579  -22.8433   33.4239 H   0  0  0  0  0  0  0  0  0  0  0  0
  -10.5794  -23.9947   34.2803 H   0  0  0  0  0  0  0  0  0  0  0  0
   -8.8094  -25.7189   34.2818 H   0  0  0  0  0  0  0  0  0  0  0  0
   -6.8300  -24.3446   34.6343 H   0  0  0  0  0  0  0  0  0  0  0  0
   -6.6796  -25.0649   32.7324 H   0  0  0  0  0  0  0  0  0  0  0  0
   -7.9744  -26.1084   32.2003 H   0  0  0  0  0  0  0  0  0  0  0  0
   -7.7816  -23.1365   31.9110 H   0  0  0  0  0  0  0  0  0  0  0  0
   -7.4723  -24.2494   30.5469 H   0  0  0  0  0  0  0  0  0  0  0  0
  1  2  1  0
  2  3  1  0
  3  4  1  0
  4  5  2  0
  5  6  1  0
  6  7  2  0
  6  8  2  0
  6  9  1  0
  9 10  1  0
 10 11  1  0
 11 12  1  0
 12 13  2  0
 13 14  1  0
 14 15  1  0
 14 16  2  0
 16 17  1  0
 17 18  1  0
 17 19  2  0
  5 20  1  0
 20 21  1  0
 21 22  2  0
 22 23  1  0
 23 24  1  0
 24 25  1  0
 24 26  1  0
 26 27  1  0
 27 28  1  0
 28  4  1  0
 19 12  1  0
 28 22  1  0
  1 29  1  0
  1 30  1  0
  1 31  1  0
  2 32  1  0
  2 33  1  0
  9 34  1  0
 10 35  1  0
 10 36  1  0
 11 37  1  0
 11 38  1  0
 15 39  1  0
 15 40  1  0
 15 41  1  0
 16 42  1  0
 18 43  1  0
 20 44  1  0
 23 45  1  0
 23 46  1  0
 24 47  1  0
 25 48  1  0
 26 49  1  0
 26 50  1  0
 27 51  1  0
 27 52  1  0
M  END
>  <Energy>  (954) 
36.798535910758417

>  <compound_id>  (954) 
2238

>  <target_id>  (954) 
1

>  <reference_id>  (954) 
34

>  <inspiration_ids>  (954) 
[42, 34]

>  <energy_score>  (954) 
17.224431444615504

>  <distance_score>  (954) 
1.5013490228194573

>  <path>  (954) 
/opt/xchem-fragalysis-2/maxwin/BulkDock/SCRATCH/505732/C2238-P34/C2238-P34.minimised.mol

>  <scratch_subdir>  (954) 
/opt/xchem-fragalysis-2/maxwin/BulkDock/SCRATCH/505732/C2238-P34

>  <fragmenstein_runtime>  (954) 
6.825027942657471

>  <fragmenstein_outcome>  (954) 
too moved

>  <fragmenstein_mode>  (954) 
expansion

>  <fragmenstein_error>  (954) 


$$$$
C2239-P42
     RDKit          3D

 58 60  0  0  0  0  0  0  0  0999 V2000
   -8.0760  -21.2736   33.0939 C   0  0  0  0  0  0  0  0  0  0  0  0
   -9.4748  -20.6812   32.2947 C   0  0  0  0  0  0  0  0  0  0  0  0
  -10.9810  -21.4486   32.1604 S   0  0  0  0  0  4  0  0  0  0  0  0
  -11.9595  -21.7722   33.6177 C   0  0  0  0  0  0  0  0  0  0  0  0
  -12.4932  -22.9909   33.0692 C   0  0  0  0  0  0  0  0  0  0  0  0
  -11.1990  -24.6730   33.1328 S   0  0  0  0  0  0  0  0  0  0  0  0
  -11.6149  -25.7503   32.2881 O   0  0  0  0  0  0  0  0  0  0  0  0
  -10.8192  -25.1422   34.4474 O   0  0  0  0  0  0  0  0  0  0  0  0
   -9.7791  -24.3326   32.3443 N   0  0  0  0  0  0  0  0  0  0  0  0
   -9.0656  -25.3980   31.5480 C   0  0  0  0  0  0  0  0  0  0  0  0
   -9.6340  -26.7877   31.2794 C   0  0  0  0  0  0  0  0  0  0  0  0
  -10.5338  -27.0683   30.1103 C   0  0  0  0  0  0  0  0  0  0  0  0
  -11.5320  -27.9636   30.3202 N   0  0  0  0  0  0  0  0  0  0  0  0
  -12.3309  -28.2876   29.2905 C   0  0  0  0  0  0  0  0  0  0  0  0
  -13.4433  -29.2600   29.5400 C   0  0  0  0  0  0  0  0  0  0  0  0
  -12.1100  -27.7841   28.0408 C   0  0  0  0  0  0  0  0  0  0  0  0
  -11.0291  -26.9553   27.9176 C   0  0  0  0  0  0  0  0  0  0  0  0
  -10.8401  -26.3286   26.7262 O   0  0  0  0  0  0  0  0  0  0  0  0
  -10.2170  -26.5660   28.9079 N   0  0  0  0  0  0  0  0  0  0  0  0
  -12.8092  -22.2958   31.7074 N   0  0  0  0  0  0  0  0  0  0  0  0
  -13.9967  -21.5127   31.9273 O   0  0  0  0  0  0  0  0  0  0  0  0
  -11.7394  -22.2299   30.7291 C   0  0  0  0  0  0  0  0  0  0  0  0
  -11.6319  -21.3961   29.4374 C   0  0  0  0  0  0  0  0  0  0  0  0
  -11.8270  -21.9457   27.9714 C   0  0  0  0  0  0  0  0  0  0  0  0
  -11.6528  -23.4098   27.6842 C   0  0  0  0  0  0  0  0  0  0  0  0
  -10.3120  -23.8203   27.4690 O   0  0  0  0  0  0  0  0  0  0  0  0
  -12.2006  -24.0826   28.8770 C   0  0  0  0  0  0  0  0  0  0  0  0
  -11.4468  -23.6445   30.1420 C   0  0  0  0  0  0  0  0  0  0  0  0
   -7.7760  -20.5227   33.8316 H   0  0  0  0  0  0  0  0  0  0  0  0
   -7.1521  -21.3978   32.5258 H   0  0  0  0  0  0  0  0  0  0  0  0
   -8.2179  -22.2649   33.5000 H   0  0  0  0  0  0  0  0  0  0  0  0
   -9.6926  -19.6946   32.7118 H   0  0  0  0  0  0  0  0  0  0  0  0
   -9.6126  -20.8295   31.2501 H   0  0  0  0  0  0  0  0  0  0  0  0
  -11.5694  -20.2861   31.9419 H   0  0  0  0  0  0  0  0  0  0  0  0
  -11.7148  -21.9740   34.6267 H   0  0  0  0  0  0  0  0  0  0  0  0
  -12.6601  -20.9330   33.7148 H   0  0  0  0  0  0  0  0  0  0  0  0
  -13.3761  -23.2172   33.6672 H   0  0  0  0  0  0  0  0  0  0  0  0
   -9.1731  -23.7621   32.9125 H   0  0  0  0  0  0  0  0  0  0  0  0
   -8.1307  -25.5551   32.0901 H   0  0  0  0  0  0  0  0  0  0  0  0
   -8.8239  -24.9804   30.5773 H   0  0  0  0  0  0  0  0  0  0  0  0
  -10.1053  -27.1579   32.1811 H   0  0  0  0  0  0  0  0  0  0  0  0
   -8.7903  -27.4554   31.0946 H   0  0  0  0  0  0  0  0  0  0  0  0
  -13.2986  -30.1643   28.9406 H   0  0  0  0  0  0  0  0  0  0  0  0
  -13.4756  -29.5529   30.5943 H   0  0  0  0  0  0  0  0  0  0  0  0
  -14.4066  -28.8107   29.2796 H   0  0  0  0  0  0  0  0  0  0  0  0
  -12.7473  -27.9973   27.2074 H   0  0  0  0  0  0  0  0  0  0  0  0
  -10.3211  -25.5434   27.0138 H   0  0  0  0  0  0  0  0  0  0  0  0
  -14.6430  -22.0849   31.4749 H   0  0  0  0  0  0  0  0  0  0  0  0
  -10.6147  -21.0258   29.4407 H   0  0  0  0  0  0  0  0  0  0  0  0
  -12.2831  -20.5409   29.4857 H   0  0  0  0  0  0  0  0  0  0  0  0
  -12.8306  -21.6687   27.6415 H   0  0  0  0  0  0  0  0  0  0  0  0
  -11.1495  -21.4427   27.2946 H   0  0  0  0  0  0  0  0  0  0  0  0
  -12.2116  -23.6871   26.7839 H   0  0  0  0  0  0  0  0  0  0  0  0
   -9.7469  -23.3005   28.0640 H   0  0  0  0  0  0  0  0  0  0  0  0
  -12.1677  -25.1527   28.7947 H   0  0  0  0  0  0  0  0  0  0  0  0
  -13.2500  -23.8807   28.8713 H   0  0  0  0  0  0  0  0  0  0  0  0
  -11.6921  -24.4232   30.8018 H   0  0  0  0  0  0  0  0  0  0  0  0
  -10.4226  -23.8732   29.9324 H   0  0  0  0  0  0  0  0  0  0  0  0
  1  2  1  0
  2  3  1  0
  3  4  1  0
  4  5  1  0
  5  6  1  0
  6  7  2  0
  6  8  2  0
  6  9  1  0
  9 10  1  0
 10 11  1  0
 11 12  1  0
 12 13  2  0
 13 14  1  0
 14 15  1  0
 14 16  2  0
 16 17  1  0
 17 18  1  0
 17 19  2  0
  5 20  1  0
 20 21  1  0
 20 22  1  0
 22 23  1  0
 23 24  1  0
 24 25  1  0
 25 26  1  0
 25 27  1  0
 27 28  1  0
 22  3  1  0
 19 12  1  0
 28 22  1  0
  1 29  1  0
  1 30  1  0
  1 31  1  0
  2 32  1  0
  2 33  1  0
  3 34  1  0
  4 35  1  0
  4 36  1  0
  5 37  1  0
  9 38  1  0
 10 39  1  0
 10 40  1  0
 11 41  1  0
 11 42  1  0
 15 43  1  0
 15 44  1  0
 15 45  1  0
 16 46  1  0
 18 47  1  0
 21 48  1  0
 23 49  1  0
 23 50  1  0
 24 51  1  0
 24 52  1  0
 25 53  1  0
 26 54  1  0
 27 55  1  0
 27 56  1  0
 28 57  1  0
 28 58  1  0
M  END
>  <Energy>  (955) 
269.00760977562209

>  <compound_id>  (955) 
2239

>  <target_id>  (955) 
1

>  <reference_id>  (955) 
42

>  <inspiration_ids>  (955) 
[42, 35]

>  <energy_score>  (955) 
134.58979234770715

>  <distance_score>  (955) 
2.608129257591732

>  <path>  (955) 
/opt/xchem-fragalysis-2/maxwin/BulkDock/SCRATCH/505732/C2239-P42/C2239-P42.minimised.mol

>  <scratch_subdir>  (955) 
/opt/xchem-fragalysis-2/maxwin/BulkDock/SCRATCH/505732/C2239-P42

>  <fragmenstein_runtime>  (955) 
19.69477415084839

>  <fragmenstein_outcome>  (955) 
too moved

>  <fragmenstein_mode>  (955) 
expansion

>  <fragmenstein_error>  (955) 


$$$$
C2239-P35
     RDKit          3D

 58 60  0  0  0  0  0  0  0  0999 V2000
  -10.5969  -21.3595   34.9499 C   0  0  0  0  0  0  0  0  0  0  0  0
  -10.7117  -22.3001   33.7693 C   0  0  0  0  0  0  0  0  0  0  0  0
  -11.8780  -21.6908   32.5734 S   0  0  0  0  0  4  0  0  0  0  0  0
  -13.5147  -21.8665   33.2472 C   0  0  0  0  0  0  0  0  0  0  0  0
  -14.1149  -23.0610   32.5207 C   0  0  0  0  0  0  0  0  0  0  0  0
  -15.9861  -23.1309   32.7236 S   0  0  0  0  0  0  0  0  0  0  0  0
  -16.4685  -23.7000   33.9589 O   0  0  0  0  0  0  0  0  0  0  0  0
  -16.5684  -21.8899   32.2526 O   0  0  0  0  0  0  0  0  0  0  0  0
  -16.3463  -24.3950   31.5939 N   0  0  0  0  0  0  0  0  0  0  0  0
  -15.8147  -25.7431   31.9306 C   0  0  0  0  0  0  0  0  0  0  0  0
  -15.6847  -26.6420   30.7009 C   0  0  0  0  0  0  0  0  0  0  0  0
  -14.3773  -27.3990   30.6294 C   0  0  0  0  0  0  0  0  0  0  0  0
  -13.7016  -27.3313   29.4650 N   0  0  0  0  0  0  0  0  0  0  0  0
  -12.5737  -28.0625   29.3470 C   0  0  0  0  0  0  0  0  0  0  0  0
  -11.8982  -28.0756   28.0116 C   0  0  0  0  0  0  0  0  0  0  0  0
  -12.0801  -28.8184   30.3816 C   0  0  0  0  0  0  0  0  0  0  0  0
  -12.8472  -28.8287   31.5133 C   0  0  0  0  0  0  0  0  0  0  0  0
  -12.4946  -29.5986   32.5758 O   0  0  0  0  0  0  0  0  0  0  0  0
  -13.9860  -28.1366   31.6806 N   0  0  0  0  0  0  0  0  0  0  0  0
  -13.5626  -22.9903   31.1144 N   0  0  0  0  0  0  0  0  0  0  0  0
  -13.9053  -24.1765   30.3739 O   0  0  0  0  0  0  0  0  0  0  0  0
  -12.0916  -22.7831   31.1396 C   0  0  0  0  0  0  0  0  0  0  0  0
  -11.7076  -21.9987   29.8730 C   0  0  0  0  0  0  0  0  0  0  0  0
  -11.4380  -22.7862   28.5934 C   0  0  0  0  0  0  0  0  0  0  0  0
  -11.5277  -24.2932   28.7011 C   0  0  0  0  0  0  0  0  0  0  0  0
  -10.8571  -24.8514   27.5712 O   0  0  0  0  0  0  0  0  0  0  0  0
  -10.9103  -24.8254   29.9881 C   0  0  0  0  0  0  0  0  0  0  0  0
  -11.2327  -24.0582   31.2790 C   0  0  0  0  0  0  0  0  0  0  0  0
   -9.8849  -21.7503   35.6827 H   0  0  0  0  0  0  0  0  0  0  0  0
  -11.5599  -21.2287   35.4494 H   0  0  0  0  0  0  0  0  0  0  0  0
  -10.2527  -20.3708   34.6287 H   0  0  0  0  0  0  0  0  0  0  0  0
  -11.0283  -23.2934   34.0851 H   0  0  0  0  0  0  0  0  0  0  0  0
   -9.7417  -22.3744   33.2763 H   0  0  0  0  0  0  0  0  0  0  0  0
  -11.5916  -20.4251   32.2092 H   0  0  0  0  0  0  0  0  0  0  0  0
  -14.0724  -20.9489   33.0712 H   0  0  0  0  0  0  0  0  0  0  0  0
  -13.4054  -22.0186   34.3152 H   0  0  0  0  0  0  0  0  0  0  0  0
  -13.7513  -23.9727   32.9577 H   0  0  0  0  0  0  0  0  0  0  0  0
  -16.0018  -23.9910   30.7110 H   0  0  0  0  0  0  0  0  0  0  0  0
  -14.8516  -25.6390   32.4031 H   0  0  0  0  0  0  0  0  0  0  0  0
  -16.4902  -26.2074   32.6577 H   0  0  0  0  0  0  0  0  0  0  0  0
  -16.4961  -27.3800   30.7048 H   0  0  0  0  0  0  0  0  0  0  0  0
  -15.8070  -26.0621   29.7780 H   0  0  0  0  0  0  0  0  0  0  0  0
  -12.0509  -29.0476   27.5356 H   0  0  0  0  0  0  0  0  0  0  0  0
  -12.3154  -27.3065   27.3544 H   0  0  0  0  0  0  0  0  0  0  0  0
  -10.8249  -27.8948   28.1201 H   0  0  0  0  0  0  0  0  0  0  0  0
  -11.1613  -29.3757   30.3005 H   0  0  0  0  0  0  0  0  0  0  0  0
  -11.7874  -30.2276   32.3308 H   0  0  0  0  0  0  0  0  0  0  0  0
  -13.4241  -24.9067   30.8112 H   0  0  0  0  0  0  0  0  0  0  0  0
  -10.8315  -21.3808   30.0858 H   0  0  0  0  0  0  0  0  0  0  0  0
  -12.4623  -21.2483   29.6447 H   0  0  0  0  0  0  0  0  0  0  0  0
  -10.4426  -22.5116   28.2309 H   0  0  0  0  0  0  0  0  0  0  0  0
  -12.1091  -22.4533   27.7973 H   0  0  0  0  0  0  0  0  0  0  0  0
  -12.5647  -24.6160   28.6052 H   0  0  0  0  0  0  0  0  0  0  0  0
  -10.5705  -25.7483   27.8001 H   0  0  0  0  0  0  0  0  0  0  0  0
   -9.8192  -24.8723   29.8690 H   0  0  0  0  0  0  0  0  0  0  0  0
  -11.1920  -25.8727   30.1220 H   0  0  0  0  0  0  0  0  0  0  0  0
  -11.6812  -24.7452   32.0030 H   0  0  0  0  0  0  0  0  0  0  0  0
  -10.2680  -23.8168   31.7330 H   0  0  0  0  0  0  0  0  0  0  0  0
  1  2  1  0
  2  3  1  0
  3  4  1  0
  4  5  1  0
  5  6  1  0
  6  7  2  0
  6  8  2  0
  6  9  1  0
  9 10  1  0
 10 11  1  0
 11 12  1  0
 12 13  2  0
 13 14  1  0
 14 15  1  0
 14 16  2  0
 16 17  1  0
 17 18  1  0
 17 19  2  0
  5 20  1  0
 20 21  1  0
 20 22  1  0
 22 23  1  0
 23 24  1  0
 24 25  1  0
 25 26  1  0
 25 27  1  0
 27 28  1  0
 22  3  1  0
 19 12  1  0
 28 22  1  0
  1 29  1  0
  1 30  1  0
  1 31  1  0
  2 32  1  0
  2 33  1  0
  3 34  1  0
  4 35  1  0
  4 36  1  0
  5 37  1  0
  9 38  1  0
 10 39  1  0
 10 40  1  0
 11 41  1  0
 11 42  1  0
 15 43  1  0
 15 44  1  0
 15 45  1  0
 16 46  1  0
 18 47  1  0
 21 48  1  0
 23 49  1  0
 23 50  1  0
 24 51  1  0
 24 52  1  0
 25 53  1  0
 26 54  1  0
 27 55  1  0
 27 56  1  0
 28 57  1  0
 28 58  1  0
M  END
>  <Energy>  (956) 
37.890464151402561

>  <compound_id>  (956) 
2239

>  <target_id>  (956) 
1

>  <reference_id>  (956) 
35

>  <inspiration_ids>  (956) 
[42, 35]

>  <energy_score>  (956) 
-96.52735327651556

>  <distance_score>  (956) 
4.0671493957269265

>  <path>  (956) 
/opt/xchem-fragalysis-2/maxwin/BulkDock/SCRATCH/505732/C2239-P35/C2239-P35.minimised.mol

>  <scratch_subdir>  (956) 
/opt/xchem-fragalysis-2/maxwin/BulkDock/SCRATCH/505732/C2239-P35

>  <fragmenstein_runtime>  (956) 
24.30597996711731

>  <fragmenstein_outcome>  (956) 
too moved

>  <fragmenstein_mode>  (956) 
expansion

>  <fragmenstein_error>  (956) 


$$$$
C2241-P42
     RDKit          3D

 59 60  0  0  0  0  0  0  0  0999 V2000
  -15.7651  -30.5687   29.4639 C   0  0  0  0  0  0  0  0  0  0  0  0
  -15.5814  -29.2109   28.8029 C   0  0  0  0  0  0  0  0  0  0  0  0
  -16.5923  -28.9678   27.6722 C   0  0  0  0  0  0  0  0  0  0  0  0
  -17.9379  -28.4162   28.1474 C   0  0  0  0  0  0  0  0  0  0  0  0
  -18.8501  -28.0221   27.0600 N   0  0  0  0  0  0  0  0  0  0  0  0
  -18.2466  -27.1094   26.0427 C   0  0  0  0  0  0  0  0  0  0  0  0
  -17.4756  -25.5157   26.5759 S   0  0  0  0  0  0  0  0  0  0  0  0
  -16.5397  -25.7578   27.6545 O   0  0  0  0  0  0  0  0  0  0  0  0
  -18.5391  -24.5424   26.7259 O   0  0  0  0  0  0  0  0  0  0  0  0
  -16.5385  -25.0349   25.2203 N   0  0  0  0  0  0  0  0  0  0  0  0
  -16.2855  -23.5785   25.1188 C   0  0  0  0  0  0  0  0  0  0  0  0
  -14.8158  -23.2392   24.8476 C   0  0  0  0  0  0  0  0  0  0  0  0
  -13.9061  -23.9888   25.8073 C   0  0  0  0  0  0  0  0  0  0  0  0
  -12.5376  -23.6862   25.5407 O   0  0  0  0  0  0  0  0  0  0  0  0
  -14.1209  -25.4948   25.7225 C   0  0  0  0  0  0  0  0  0  0  0  0
  -15.3548  -25.8736   24.9094 C   0  0  0  0  0  0  0  0  0  0  0  0
  -14.2851  -29.1507   28.1612 O   0  0  0  0  0  0  0  0  0  0  0  0
  -13.2499  -28.6866   28.9040 C   0  0  0  0  0  0  0  0  0  0  0  0
  -13.1905  -28.6348   30.1169 O   0  0  0  0  0  0  0  0  0  0  0  0
  -12.2279  -28.2232   27.9415 C   0  0  0  0  0  0  0  0  0  0  0  0
  -11.4121  -27.1592   27.9927 C   0  0  0  0  0  0  0  0  0  0  0  0
  -11.2543  -26.1665   29.0475 C   0  0  0  0  0  0  0  0  0  0  0  0
  -11.5051  -24.8275   28.7392 C   0  0  0  0  0  0  0  0  0  0  0  0
  -11.3590  -23.8457   29.7120 C   0  0  0  0  0  0  0  0  0  0  0  0
  -10.9158  -24.1881   30.9954 C   0  0  0  0  0  0  0  0  0  0  0  0
  -10.5962  -25.5067   31.2847 C   0  0  0  0  0  0  0  0  0  0  0  0
   -9.9484  -25.8249   32.5912 C   0  0  0  0  0  0  0  0  0  0  0  0
   -8.6308  -26.3426   32.3808 N   0  0  0  0  0  0  0  0  0  0  0  0
  -10.5750  -25.6829   33.5933 O   0  0  0  0  0  0  0  0  0  0  0  0
  -10.7780  -26.5058   30.3171 C   0  0  0  0  0  0  0  0  0  0  0  0
  -16.7562  -30.6608   29.9173 H   0  0  0  0  0  0  0  0  0  0  0  0
  -15.6316  -31.3791   28.7391 H   0  0  0  0  0  0  0  0  0  0  0  0
  -15.0132  -30.7230   30.2449 H   0  0  0  0  0  0  0  0  0  0  0  0
  -15.6582  -28.4079   29.5458 H   0  0  0  0  0  0  0  0  0  0  0  0
  -16.7416  -29.8848   27.0877 H   0  0  0  0  0  0  0  0  0  0  0  0
  -16.1292  -28.2565   26.9850 H   0  0  0  0  0  0  0  0  0  0  0  0
  -17.7902  -27.5696   28.8259 H   0  0  0  0  0  0  0  0  0  0  0  0
  -18.4462  -29.1866   28.7386 H   0  0  0  0  0  0  0  0  0  0  0  0
  -19.6441  -27.5314   27.4798 H   0  0  0  0  0  0  0  0  0  0  0  0
  -17.5150  -27.6690   25.4587 H   0  0  0  0  0  0  0  0  0  0  0  0
  -19.0388  -26.8185   25.3432 H   0  0  0  0  0  0  0  0  0  0  0  0
  -16.9224  -23.1656   24.3305 H   0  0  0  0  0  0  0  0  0  0  0  0
  -16.6220  -23.0956   26.0318 H   0  0  0  0  0  0  0  0  0  0  0  0
  -14.5249  -23.4907   23.8234 H   0  0  0  0  0  0  0  0  0  0  0  0
  -14.6512  -22.1582   24.9146 H   0  0  0  0  0  0  0  0  0  0  0  0
  -14.0933  -23.6684   26.8320 H   0  0  0  0  0  0  0  0  0  0  0  0
  -12.4360  -22.7170   25.5348 H   0  0  0  0  0  0  0  0  0  0  0  0
  -14.2093  -25.8921   26.7398 H   0  0  0  0  0  0  0  0  0  0  0  0
  -13.2402  -25.9894   25.2982 H   0  0  0  0  0  0  0  0  0  0  0  0
  -15.6137  -26.9166   25.0599 H   0  0  0  0  0  0  0  0  0  0  0  0
  -15.1425  -25.7869   23.8395 H   0  0  0  0  0  0  0  0  0  0  0  0
  -12.1629  -28.8573   27.0652 H   0  0  0  0  0  0  0  0  0  0  0  0
  -10.7693  -26.9751   27.1317 H   0  0  0  0  0  0  0  0  0  0  0  0
  -11.8343  -24.5420   27.7457 H   0  0  0  0  0  0  0  0  0  0  0  0
  -11.6079  -22.8092   29.4898 H   0  0  0  0  0  0  0  0  0  0  0  0
  -10.8399  -23.4268   31.7709 H   0  0  0  0  0  0  0  0  0  0  0  0
   -8.3697  -26.2058   31.3887 H   0  0  0  0  0  0  0  0  0  0  0  0
   -8.4596  -26.4239   31.3649 H   0  0  0  0  0  0  0  0  0  0  0  0
  -10.5670  -27.5435   30.5624 H   0  0  0  0  0  0  0  0  0  0  0  0
  1  2  1  0
  2  3  1  0
  3  4  1  0
  4  5  1  0
  5  6  1  0
  6  7  1  0
  7  8  2  0
  7  9  2  0
  7 10  1  0
 10 11  1  0
 11 12  1  0
 12 13  1  0
 13 14  1  0
 13 15  1  0
 15 16  1  0
  2 17  1  0
 17 18  1  0
 18 19  2  0
 18 20  1  0
 20 21  2  3
 21 22  1  0
 22 23  2  0
 23 24  1  0
 24 25  2  0
 25 26  1  0
 26 27  1  0
 27 28  1  0
 27 29  2  0
 26 30  2  0
 16 10  1  0
 30 22  1  0
  1 31  1  0
  1 32  1  0
  1 33  1  0
  2 34  1  0
  3 35  1  0
  3 36  1  0
  4 37  1  0
  4 38  1  0
  5 39  1  0
  6 40  1  0
  6 41  1  0
 11 42  1  0
 11 43  1  0
 12 44  1  0
 12 45  1  0
 13 46  1  0
 14 47  1  0
 15 48  1  0
 15 49  1  0
 16 50  1  0
 16 51  1  0
 20 52  1  0
 21 53  1  0
 23 54  1  0
 24 55  1  0
 25 56  1  0
 28 57  1  0
 28 58  1  0
 30 59  1  0
M  END
>  <Energy>  (957) 
224.50815502165722

>  <compound_id>  (957) 
2241

>  <target_id>  (957) 
1

>  <reference_id>  (957) 
42

>  <inspiration_ids>  (957) 
[42, 39]

>  <energy_score>  (957) 
93.99709487827926

>  <distance_score>  (957) 
2.13651283657361

>  <path>  (957) 
/opt/xchem-fragalysis-2/maxwin/BulkDock/SCRATCH/505732/C2241-P42/C2241-P42.minimised.mol

>  <scratch_subdir>  (957) 
/opt/xchem-fragalysis-2/maxwin/BulkDock/SCRATCH/505732/C2241-P42

>  <fragmenstein_runtime>  (957) 
12.889670372009277

>  <fragmenstein_outcome>  (957) 
too moved

>  <fragmenstein_mode>  (957) 
expansion

>  <fragmenstein_error>  (957) 


$$$$
C2241-P39
     RDKit          3D

 59 60  0  0  0  0  0  0  0  0999 V2000
  -14.8388  -31.1219   30.7699 C   0  0  0  0  0  0  0  0  0  0  0  0
  -14.2321  -30.4960   29.5123 C   0  0  0  0  0  0  0  0  0  0  0  0
  -15.2660  -30.3193   28.3852 C   0  0  0  0  0  0  0  0  0  0  0  0
  -16.6513  -29.8175   28.8333 C   0  0  0  0  0  0  0  0  0  0  0  0
  -17.2297  -28.8117   27.9577 N   0  0  0  0  0  0  0  0  0  0  0  0
  -17.3566  -29.1683   26.5313 C   0  0  0  0  0  0  0  0  0  0  0  0
  -17.5118  -27.7429   25.3596 S   0  0  0  0  0  0  0  0  0  0  0  0
  -17.6816  -28.2736   24.0212 O   0  0  0  0  0  0  0  0  0  0  0  0
  -18.4631  -26.7914   25.9001 O   0  0  0  0  0  0  0  0  0  0  0  0
  -15.9599  -26.9989   25.4033 N   0  0  0  0  0  0  0  0  0  0  0  0
  -15.5158  -26.5291   26.7272 C   0  0  0  0  0  0  0  0  0  0  0  0
  -14.0987  -25.9848   26.7438 C   0  0  0  0  0  0  0  0  0  0  0  0
  -13.6730  -25.3115   25.4664 C   0  0  0  0  0  0  0  0  0  0  0  0
  -12.7662  -24.2527   25.7683 O   0  0  0  0  0  0  0  0  0  0  0  0
  -14.8776  -24.8376   24.6888 C   0  0  0  0  0  0  0  0  0  0  0  0
  -15.7746  -26.0062   24.3047 C   0  0  0  0  0  0  0  0  0  0  0  0
  -13.6352  -29.1882   29.7314 O   0  0  0  0  0  0  0  0  0  0  0  0
  -12.5928  -29.1253   30.5972 C   0  0  0  0  0  0  0  0  0  0  0  0
  -12.2342  -30.0337   31.3260 O   0  0  0  0  0  0  0  0  0  0  0  0
  -11.9408  -27.7733   30.6075 C   0  0  0  0  0  0  0  0  0  0  0  0
  -11.9380  -26.9172   29.5752 C   0  0  0  0  0  0  0  0  0  0  0  0
  -11.6713  -25.4719   29.6945 C   0  0  0  0  0  0  0  0  0  0  0  0
  -11.2694  -24.7520   28.5678 C   0  0  0  0  0  0  0  0  0  0  0  0
  -11.3792  -23.3585   28.5421 C   0  0  0  0  0  0  0  0  0  0  0  0
  -11.8774  -22.6669   29.6438 C   0  0  0  0  0  0  0  0  0  0  0  0
  -12.2489  -23.3675   30.7906 C   0  0  0  0  0  0  0  0  0  0  0  0
  -12.9360  -22.6328   31.8976 C   0  0  0  0  0  0  0  0  0  0  0  0
  -12.4352  -22.9272   33.2108 N   0  0  0  0  0  0  0  0  0  0  0  0
  -13.7887  -21.8728   31.5403 O   0  0  0  0  0  0  0  0  0  0  0  0
  -12.1247  -24.7597   30.8183 C   0  0  0  0  0  0  0  0  0  0  0  0
  -14.0635  -31.5516   31.4115 H   0  0  0  0  0  0  0  0  0  0  0  0
  -15.3690  -30.3826   31.3776 H   0  0  0  0  0  0  0  0  0  0  0  0
  -15.5200  -31.9403   30.5155 H   0  0  0  0  0  0  0  0  0  0  0  0
  -13.4398  -31.1483   29.1259 H   0  0  0  0  0  0  0  0  0  0  0  0
  -14.8354  -29.6293   27.6524 H   0  0  0  0  0  0  0  0  0  0  0  0
  -15.4041  -31.2793   27.8716 H   0  0  0  0  0  0  0  0  0  0  0  0
  -16.5808  -29.3473   29.8188 H   0  0  0  0  0  0  0  0  0  0  0  0
  -17.3372  -30.6666   28.9342 H   0  0  0  0  0  0  0  0  0  0  0  0
  -18.1353  -28.4897   28.3052 H   0  0  0  0  0  0  0  0  0  0  0  0
  -16.5028  -29.7376   26.1513 H   0  0  0  0  0  0  0  0  0  0  0  0
  -18.2573  -29.7736   26.3827 H   0  0  0  0  0  0  0  0  0  0  0  0
  -16.2067  -25.7776   27.0928 H   0  0  0  0  0  0  0  0  0  0  0  0
  -15.5098  -27.3489   27.4373 H   0  0  0  0  0  0  0  0  0  0  0  0
  -13.9825  -25.3144   27.6009 H   0  0  0  0  0  0  0  0  0  0  0  0
  -13.4089  -26.8113   26.9214 H   0  0  0  0  0  0  0  0  0  0  0  0
  -13.1175  -26.0448   24.8732 H   0  0  0  0  0  0  0  0  0  0  0  0
  -13.1705  -23.3841   25.5683 H   0  0  0  0  0  0  0  0  0  0  0  0
  -14.5450  -24.2798   23.8123 H   0  0  0  0  0  0  0  0  0  0  0  0
  -15.4594  -24.1187   25.2690 H   0  0  0  0  0  0  0  0  0  0  0  0
  -16.7408  -25.6054   23.9785 H   0  0  0  0  0  0  0  0  0  0  0  0
  -15.3412  -26.5467   23.4583 H   0  0  0  0  0  0  0  0  0  0  0  0
  -11.4397  -27.5213   31.5313 H   0  0  0  0  0  0  0  0  0  0  0  0
  -12.3218  -27.2403   28.6156 H   0  0  0  0  0  0  0  0  0  0  0  0
  -10.9568  -25.2666   27.6599 H   0  0  0  0  0  0  0  0  0  0  0  0
  -11.1337  -22.8177   27.6332 H   0  0  0  0  0  0  0  0  0  0  0  0
  -11.9967  -21.5886   29.5921 H   0  0  0  0  0  0  0  0  0  0  0  0
  -11.7784  -23.7230   33.1502 H   0  0  0  0  0  0  0  0  0  0  0  0
  -11.6156  -23.5523   33.1265 H   0  0  0  0  0  0  0  0  0  0  0  0
  -12.5409  -25.2914   31.6659 H   0  0  0  0  0  0  0  0  0  0  0  0
  1  2  1  0
  2  3  1  0
  3  4  1  0
  4  5  1  0
  5  6  1  0
  6  7  1  0
  7  8  2  0
  7  9  2  0
  7 10  1  0
 10 11  1  0
 11 12  1  0
 12 13  1  0
 13 14  1  0
 13 15  1  0
 15 16  1  0
  2 17  1  0
 17 18  1  0
 18 19  2  0
 18 20  1  0
 20 21  2  3
 21 22  1  0
 22 23  2  0
 23 24  1  0
 24 25  2  0
 25 26  1  0
 26 27  1  0
 27 28  1  0
 27 29  2  0
 26 30  2  0
 16 10  1  0
 30 22  1  0
  1 31  1  0
  1 32  1  0
  1 33  1  0
  2 34  1  0
  3 35  1  0
  3 36  1  0
  4 37  1  0
  4 38  1  0
  5 39  1  0
  6 40  1  0
  6 41  1  0
 11 42  1  0
 11 43  1  0
 12 44  1  0
 12 45  1  0
 13 46  1  0
 14 47  1  0
 15 48  1  0
 15 49  1  0
 16 50  1  0
 16 51  1  0
 20 52  1  0
 21 53  1  0
 23 54  1  0
 24 55  1  0
 25 56  1  0
 28 57  1  0
 28 58  1  0
 30 59  1  0
M  END
>  <Energy>  (958) 
232.10564664323266

>  <compound_id>  (958) 
2241

>  <target_id>  (958) 
1

>  <reference_id>  (958) 
39

>  <inspiration_ids>  (958) 
[42, 39]

>  <energy_score>  (958) 
101.59458649985311

>  <distance_score>  (958) 
2.75618876860558

>  <path>  (958) 
/opt/xchem-fragalysis-2/maxwin/BulkDock/SCRATCH/505732/C2241-P39/C2241-P39.minimised.mol

>  <scratch_subdir>  (958) 
/opt/xchem-fragalysis-2/maxwin/BulkDock/SCRATCH/505732/C2241-P39

>  <fragmenstein_runtime>  (958) 
16.317885160446167

>  <fragmenstein_outcome>  (958) 
too moved

>  <fragmenstein_mode>  (958) 
expansion

>  <fragmenstein_error>  (958) 


$$$$
C309-P42
     RDKit          3D

 56 58  0  0  0  0  0  0  0  0999 V2000
  -11.6616  -22.1116   31.1914 C   0  0  0  0  0  0  0  0  0  0  0  0
  -12.7638  -21.8022   32.1760 C   0  0  0  0  0  0  0  0  0  0  0  0
  -12.5481  -21.2128   33.3553 C   0  0  0  0  0  0  0  0  0  0  0  0
  -13.6857  -20.9084   34.0543 C   0  0  0  0  0  0  0  0  0  0  0  0
  -13.5648  -19.9383   35.0091 O   0  0  0  0  0  0  0  0  0  0  0  0
  -14.9469  -21.3100   33.7956 N   0  0  0  0  0  0  0  0  0  0  0  0
  -15.0887  -21.9150   32.6314 C   0  0  0  0  0  0  0  0  0  0  0  0
  -16.4506  -22.2962   32.0694 C   0  0  0  0  0  0  0  0  0  0  0  0
  -16.8343  -23.7608   31.7252 C   0  0  0  0  0  0  0  0  0  0  0  0
  -17.7676  -23.7997   30.5131 N   0  0  0  0  0  0  0  0  0  0  0  0
  -18.2432  -25.2808   29.8775 S   0  0  0  0  0  0  0  0  0  0  0  0
  -19.6550  -25.1391   29.5926 O   0  0  0  0  0  0  0  0  0  0  0  0
  -17.7385  -26.3477   30.7054 O   0  0  0  0  0  0  0  0  0  0  0  0
  -17.5168  -25.4128   28.3662 N   0  0  0  0  0  0  0  0  0  0  0  0
  -17.5420  -26.7636   27.7258 C   0  0  0  0  0  0  0  0  0  0  0  0
  -17.7951  -26.7260   26.1980 C   0  0  0  0  0  0  0  0  0  0  0  0
  -16.9720  -25.8299   25.4395 O   0  0  0  0  0  0  0  0  0  0  0  0
  -16.7832  -24.5270   26.0221 C   0  0  0  0  0  0  0  0  0  0  0  0
  -17.3167  -23.6083   25.0560 O   0  0  0  0  0  0  0  0  0  0  0  0
  -15.3338  -24.2608   26.2237 N   0  0  0  0  0  0  0  0  0  0  0  0
  -14.5941  -23.6668   25.1037 C   0  0  0  0  0  0  0  0  0  0  0  0
  -13.2024  -23.1560   25.5544 C   0  0  0  0  0  0  0  0  0  0  0  0
  -12.5918  -23.9975   26.6757 C   0  0  0  0  0  0  0  0  0  0  0  0
  -11.1737  -24.0233   26.5803 O   0  0  0  0  0  0  0  0  0  0  0  0
  -13.1081  -25.4138   26.6039 C   0  0  0  0  0  0  0  0  0  0  0  0
  -14.6270  -25.4484   26.7271 C   0  0  0  0  0  0  0  0  0  0  0  0
  -17.7330  -24.3574   27.3718 C   0  0  0  0  0  0  0  0  0  0  0  0
  -19.1141  -24.3628   26.9650 O   0  0  0  0  0  0  0  0  0  0  0  0
  -14.0520  -21.9475   31.8043 N   0  0  0  0  0  0  0  0  0  0  0  0
  -12.0223  -22.2980   30.1791 H   0  0  0  0  0  0  0  0  0  0  0  0
  -10.9597  -21.2766   31.1441 H   0  0  0  0  0  0  0  0  0  0  0  0
  -11.1198  -22.9976   31.5373 H   0  0  0  0  0  0  0  0  0  0  0  0
  -11.6197  -20.7510   33.5900 H   0  0  0  0  0  0  0  0  0  0  0  0
  -12.6269  -19.8371   35.2358 H   0  0  0  0  0  0  0  0  0  0  0  0
  -17.2043  -21.9298   32.7803 H   0  0  0  0  0  0  0  0  0  0  0  0
  -16.5961  -21.6698   31.1806 H   0  0  0  0  0  0  0  0  0  0  0  0
  -17.3602  -24.2021   32.5792 H   0  0  0  0  0  0  0  0  0  0  0  0
  -15.9920  -24.3836   31.4916 H   0  0  0  0  0  0  0  0  0  0  0  0
  -18.5970  -23.2248   30.6864 H   0  0  0  0  0  0  0  0  0  0  0  0
  -18.3098  -27.3965   28.1843 H   0  0  0  0  0  0  0  0  0  0  0  0
  -16.5716  -27.2322   27.9214 H   0  0  0  0  0  0  0  0  0  0  0  0
  -17.6194  -27.7295   25.7940 H   0  0  0  0  0  0  0  0  0  0  0  0
  -18.8447  -26.5030   25.9782 H   0  0  0  0  0  0  0  0  0  0  0  0
  -18.2795  -23.7055   25.1879 H   0  0  0  0  0  0  0  0  0  0  0  0
  -14.4833  -24.4010   24.2974 H   0  0  0  0  0  0  0  0  0  0  0  0
  -15.1208  -22.8052   24.6784 H   0  0  0  0  0  0  0  0  0  0  0  0
  -12.5328  -23.1054   24.6884 H   0  0  0  0  0  0  0  0  0  0  0  0
  -13.2854  -22.1222   25.9118 H   0  0  0  0  0  0  0  0  0  0  0  0
  -12.8432  -23.5526   27.6450 H   0  0  0  0  0  0  0  0  0  0  0  0
  -10.8315  -24.4630   27.3767 H   0  0  0  0  0  0  0  0  0  0  0  0
  -12.7936  -25.8677   25.6548 H   0  0  0  0  0  0  0  0  0  0  0  0
  -12.6518  -26.0320   27.3869 H   0  0  0  0  0  0  0  0  0  0  0  0
  -14.8690  -25.5833   27.7843 H   0  0  0  0  0  0  0  0  0  0  0  0
  -14.9354  -26.3655   26.2202 H   0  0  0  0  0  0  0  0  0  0  0  0
  -17.5843  -23.3886   27.8075 H   0  0  0  0  0  0  0  0  0  0  0  0
  -19.6248  -24.4946   27.7902 H   0  0  0  0  0  0  0  0  0  0  0  0
  1  2  1  0
  2  3  2  0
  3  4  1  0
  4  5  1  0
  4  6  2  0
  6  7  1  0
  7  8  1  0
  8  9  1  0
  9 10  1  0
 10 11  1  0
 11 12  2  0
 11 13  2  0
 11 14  1  0
 14 15  1  0
 15 16  1  0
 16 17  1  0
 17 18  1  0
 18 19  1  0
 18 20  1  0
 20 21  1  0
 21 22  1  0
 22 23  1  0
 23 24  1  0
 23 25  1  0
 25 26  1  0
 18 27  1  0
 27 28  1  0
  7 29  2  0
 29  2  1  0
 27 14  1  0
 26 20  1  0
  1 30  1  0
  1 31  1  0
  1 32  1  0
  3 33  1  0
  5 34  1  0
  8 35  1  0
  8 36  1  0
  9 37  1  0
  9 38  1  0
 10 39  1  0
 15 40  1  0
 15 41  1  0
 16 42  1  0
 16 43  1  0
 19 44  1  0
 21 45  1  0
 21 46  1  0
 22 47  1  0
 22 48  1  0
 23 49  1  0
 24 50  1  0
 25 51  1  0
 25 52  1  0
 26 53  1  0
 26 54  1  0
 27 55  1  0
 28 56  1  0
M  END
>  <Energy>  (959) 
-172.90598466464758

>  <compound_id>  (959) 
309

>  <target_id>  (959) 
1

>  <reference_id>  (959) 
42

>  <inspiration_ids>  (959) 
[42, 46]

>  <energy_score>  (959) 
-80.48837894120231

>  <distance_score>  (959) 
2.56297856155743

>  <path>  (959) 
/opt/xchem-fragalysis-2/maxwin/BulkDock/SCRATCH/505732/C309-P42/C309-P42.minimised.mol

>  <scratch_subdir>  (959) 
/opt/xchem-fragalysis-2/maxwin/BulkDock/SCRATCH/505732/C309-P42

>  <fragmenstein_runtime>  (959) 
4.057923316955566

>  <fragmenstein_outcome>  (959) 
too moved

>  <fragmenstein_mode>  (959) 
expansion

>  <fragmenstein_error>  (959) 


$$$$
C309-P46
     RDKit          3D

 56 58  0  0  0  0  0  0  0  0999 V2000
  -11.6970  -21.9283   28.5345 C   0  0  0  0  0  0  0  0  0  0  0  0
  -11.8357  -22.9072   29.6197 C   0  0  0  0  0  0  0  0  0  0  0  0
  -11.7333  -22.4996   30.9237 C   0  0  0  0  0  0  0  0  0  0  0  0
  -11.5707  -23.5155   31.8077 C   0  0  0  0  0  0  0  0  0  0  0  0
  -11.5682  -23.2177   33.1319 O   0  0  0  0  0  0  0  0  0  0  0  0
  -11.4130  -24.8075   31.4777 N   0  0  0  0  0  0  0  0  0  0  0  0
  -11.5662  -25.0915   30.1663 C   0  0  0  0  0  0  0  0  0  0  0  0
  -11.2127  -26.4327   29.6051 C   0  0  0  0  0  0  0  0  0  0  0  0
  -12.1485  -27.6283   29.4072 C   0  0  0  0  0  0  0  0  0  0  0  0
  -13.3181  -27.5750   28.4913 N   0  0  0  0  0  0  0  0  0  0  0  0
  -14.4144  -28.8598   28.5925 S   0  0  0  0  0  0  0  0  0  0  0  0
  -15.0062  -28.8253   29.9048 O   0  0  0  0  0  0  0  0  0  0  0  0
  -13.6990  -30.0240   28.1253 O   0  0  0  0  0  0  0  0  0  0  0  0
  -15.5089  -28.4359   27.4444 N   0  0  0  0  0  0  0  0  0  0  0  0
  -16.1905  -29.4258   26.5980 C   0  0  0  0  0  0  0  0  0  0  0  0
  -17.0609  -28.7217   25.5174 C   0  0  0  0  0  0  0  0  0  0  0  0
  -16.5191  -27.4752   25.0410 O   0  0  0  0  0  0  0  0  0  0  0  0
  -16.3568  -26.4915   26.0834 C   0  0  0  0  0  0  0  0  0  0  0  0
  -17.5458  -25.7029   26.1287 O   0  0  0  0  0  0  0  0  0  0  0  0
  -15.1979  -25.6243   25.8309 N   0  0  0  0  0  0  0  0  0  0  0  0
  -15.3568  -24.6325   24.7791 C   0  0  0  0  0  0  0  0  0  0  0  0
  -14.1097  -23.7509   24.6417 C   0  0  0  0  0  0  0  0  0  0  0  0
  -13.0036  -24.1288   25.6468 C   0  0  0  0  0  0  0  0  0  0  0  0
  -11.7558  -23.5581   25.3364 O   0  0  0  0  0  0  0  0  0  0  0  0
  -12.7588  -25.6115   25.7708 C   0  0  0  0  0  0  0  0  0  0  0  0
  -14.0120  -26.3903   25.4944 C   0  0  0  0  0  0  0  0  0  0  0  0
  -16.2660  -27.2050   27.5668 C   0  0  0  0  0  0  0  0  0  0  0  0
  -17.5733  -27.5380   28.0521 O   0  0  0  0  0  0  0  0  0  0  0  0
  -11.8557  -24.1858   29.2279 N   0  0  0  0  0  0  0  0  0  0  0  0
  -10.6358  -21.7095   28.4242 H   0  0  0  0  0  0  0  0  0  0  0  0
  -12.0584  -22.3154   27.5903 H   0  0  0  0  0  0  0  0  0  0  0  0
  -12.2544  -21.0363   28.8092 H   0  0  0  0  0  0  0  0  0  0  0  0
  -11.7321  -21.4714   31.2436 H   0  0  0  0  0  0  0  0  0  0  0  0
  -11.7443  -24.0982   33.5148 H   0  0  0  0  0  0  0  0  0  0  0  0
  -10.3762  -26.7982   30.2185 H   0  0  0  0  0  0  0  0  0  0  0  0
  -10.7486  -26.2406   28.6256 H   0  0  0  0  0  0  0  0  0  0  0  0
  -11.5321  -28.3130   28.8389 H   0  0  0  0  0  0  0  0  0  0  0  0
  -12.3361  -28.1539   30.3474 H   0  0  0  0  0  0  0  0  0  0  0  0
  -13.7065  -26.6801   28.2147 H   0  0  0  0  0  0  0  0  0  0  0  0
  -16.8167  -30.0931   27.1995 H   0  0  0  0  0  0  0  0  0  0  0  0
  -15.4417  -30.0418   26.0953 H   0  0  0  0  0  0  0  0  0  0  0  0
  -17.1615  -29.3896   24.6551 H   0  0  0  0  0  0  0  0  0  0  0  0
  -18.0808  -28.5461   25.8782 H   0  0  0  0  0  0  0  0  0  0  0  0
  -17.2079  -24.9309   26.6192 H   0  0  0  0  0  0  0  0  0  0  0  0
  -15.5441  -25.1726   23.8502 H   0  0  0  0  0  0  0  0  0  0  0  0
  -16.2225  -23.9841   24.9503 H   0  0  0  0  0  0  0  0  0  0  0  0
  -13.7933  -23.7215   23.6050 H   0  0  0  0  0  0  0  0  0  0  0  0
  -14.4116  -22.7106   24.7339 H   0  0  0  0  0  0  0  0  0  0  0  0
  -13.2959  -23.7690   26.6358 H   0  0  0  0  0  0  0  0  0  0  0  0
  -11.1535  -23.7673   26.0702 H   0  0  0  0  0  0  0  0  0  0  0  0
  -11.9563  -25.9580   25.1093 H   0  0  0  0  0  0  0  0  0  0  0  0
  -12.3787  -25.8076   26.7773 H   0  0  0  0  0  0  0  0  0  0  0  0
  -14.0284  -26.6889   24.4409 H   0  0  0  0  0  0  0  0  0  0  0  0
  -13.9545  -27.2911   26.0810 H   0  0  0  0  0  0  0  0  0  0  0  0
  -15.8294  -26.5436   28.3105 H   0  0  0  0  0  0  0  0  0  0  0  0
  -18.1477  -26.8430   27.6743 H   0  0  0  0  0  0  0  0  0  0  0  0
  1  2  1  0
  2  3  2  0
  3  4  1  0
  4  5  1  0
  4  6  2  0
  6  7  1  0
  7  8  1  0
  8  9  1  0
  9 10  1  0
 10 11  1  0
 11 12  2  0
 11 13  2  0
 11 14  1  0
 14 15  1  0
 15 16  1  0
 16 17  1  0
 17 18  1  0
 18 19  1  0
 18 20  1  0
 20 21  1  0
 21 22  1  0
 22 23  1  0
 23 24  1  0
 23 25  1  0
 25 26  1  0
 18 27  1  0
 27 28  1  0
  7 29  2  0
 29  2  1  0
 27 14  1  0
 26 20  1  0
  1 30  1  0
  1 31  1  0
  1 32  1  0
  3 33  1  0
  5 34  1  0
  8 35  1  0
  8 36  1  0
  9 37  1  0
  9 38  1  0
 10 39  1  0
 15 40  1  0
 15 41  1  0
 16 42  1  0
 16 43  1  0
 19 44  1  0
 21 45  1  0
 21 46  1  0
 22 47  1  0
 22 48  1  0
 23 49  1  0
 24 50  1  0
 25 51  1  0
 25 52  1  0
 26 53  1  0
 26 54  1  0
 27 55  1  0
 28 56  1  0
M  END
>  <Energy>  (960) 
-170.92136026946605

>  <compound_id>  (960) 
309

>  <target_id>  (960) 
1

>  <reference_id>  (960) 
46

>  <inspiration_ids>  (960) 
[42, 46]

>  <energy_score>  (960) 
-78.50375454601522

>  <distance_score>  (960) 
2.802752873681967

>  <path>  (960) 
/opt/xchem-fragalysis-2/maxwin/BulkDock/SCRATCH/505732/C309-P46/C309-P46.minimised.mol

>  <scratch_subdir>  (960) 
/opt/xchem-fragalysis-2/maxwin/BulkDock/SCRATCH/505732/C309-P46

>  <fragmenstein_runtime>  (960) 
5.32749342918396

>  <fragmenstein_outcome>  (960) 
too moved

>  <fragmenstein_mode>  (960) 
expansion

>  <fragmenstein_error>  (960) 


$$$$
C1376-P42
     RDKit          3D

 54 57  0  0  0  0  0  0  0  0999 V2000
  -13.6175  -28.0462   28.3297 N   0  0  0  0  0  0  0  0  0  0  0  0
  -12.2351  -27.7497   28.7022 C   0  0  0  0  0  0  0  0  0  0  0  0
  -11.7588  -26.4774   28.0864 C   0  0  0  0  0  0  0  0  0  0  0  0
  -11.4427  -26.5701   26.6698 C   0  0  0  0  0  0  0  0  0  0  0  0
  -11.3971  -25.4396   25.9691 C   0  0  0  0  0  0  0  0  0  0  0  0
  -11.5665  -24.2358   26.6196 N   0  0  0  0  0  0  0  0  0  0  0  0
  -11.9225  -23.0538   26.0604 C   0  0  0  0  0  0  0  0  0  0  0  0
  -11.9563  -22.1398   27.0779 C   0  0  0  0  0  0  0  0  0  0  0  0
  -11.5922  -22.7405   28.3256 C   0  0  0  0  0  0  0  0  0  0  0  0
  -11.8355  -22.0200   29.6380 C   0  0  0  0  0  0  0  0  0  0  0  0
  -11.2008  -21.9800   31.0260 C   0  0  0  0  0  0  0  0  0  0  0  0
  -12.2053  -21.8859   32.0876 N   0  0  0  0  0  0  0  0  0  0  0  0
  -12.4072  -22.6699   33.0010 C   0  0  0  0  0  0  0  0  0  0  0  0
  -13.5286  -22.7891   33.9256 N   0  0  0  0  0  0  0  0  0  0  0  0
  -14.7513  -22.1082   33.9838 C   0  0  0  0  0  0  0  0  0  0  0  0
  -15.1019  -21.0263   33.2082 C   0  0  0  0  0  0  0  0  0  0  0  0
  -16.4059  -20.5170   33.1429 C   0  0  0  0  0  0  0  0  0  0  0  0
  -17.4274  -21.1202   33.8613 C   0  0  0  0  0  0  0  0  0  0  0  0
  -17.1447  -22.2641   34.5894 C   0  0  0  0  0  0  0  0  0  0  0  0
  -15.8355  -22.7631   34.6091 C   0  0  0  0  0  0  0  0  0  0  0  0
  -11.6381  -23.8779   33.4632 N   0  0  0  0  0  0  0  0  0  0  0  0
  -10.5896  -24.5229   32.9248 C   0  0  0  0  0  0  0  0  0  0  0  0
  -10.7257  -26.0192   32.1706 C   0  0  0  0  0  0  0  0  0  0  0  0
   -9.5468  -25.4640   31.5988 C   0  0  0  0  0  0  0  0  0  0  0  0
   -9.8262  -24.5259   32.8437 C   0  0  0  0  0  0  0  0  0  0  0  0
  -11.5473  -24.0908   28.0015 C   0  0  0  0  0  0  0  0  0  0  0  0
  -11.6696  -25.2977   28.7365 C   0  0  0  0  0  0  0  0  0  0  0  0
  -14.2723  -27.5336   28.9104 H   0  0  0  0  0  0  0  0  0  0  0  0
  -13.7847  -27.7147   27.3752 H   0  0  0  0  0  0  0  0  0  0  0  0
  -11.6445  -28.5649   28.3025 H   0  0  0  0  0  0  0  0  0  0  0  0
  -12.1113  -27.7709   29.7877 H   0  0  0  0  0  0  0  0  0  0  0  0
  -11.2898  -27.5331   26.1990 H   0  0  0  0  0  0  0  0  0  0  0  0
  -11.2198  -25.4201   24.9133 H   0  0  0  0  0  0  0  0  0  0  0  0
  -12.1307  -22.9526   25.0044 H   0  0  0  0  0  0  0  0  0  0  0  0
  -12.2920  -21.1384   26.9383 H   0  0  0  0  0  0  0  0  0  0  0  0
  -12.6397  -22.6543   29.9039 H   0  0  0  0  0  0  0  0  0  0  0  0
  -12.1725  -21.0096   29.4049 H   0  0  0  0  0  0  0  0  0  0  0  0
  -10.6410  -22.8723   31.1576 H   0  0  0  0  0  0  0  0  0  0  0  0
  -10.5396  -21.1231   31.1196 H   0  0  0  0  0  0  0  0  0  0  0  0
  -13.3173  -23.5010   34.6065 H   0  0  0  0  0  0  0  0  0  0  0  0
  -14.3585  -20.6375   32.5555 H   0  0  0  0  0  0  0  0  0  0  0  0
  -16.6298  -19.6852   32.4812 H   0  0  0  0  0  0  0  0  0  0  0  0
  -18.4392  -20.7302   33.8030 H   0  0  0  0  0  0  0  0  0  0  0  0
  -17.9371  -22.7911   35.1107 H   0  0  0  0  0  0  0  0  0  0  0  0
  -15.6610  -23.7108   35.1151 H   0  0  0  0  0  0  0  0  0  0  0  0
  -11.0033  -25.2464   33.9003 H   0  0  0  0  0  0  0  0  0  0  0  0
  -11.3135  -24.3040   31.9516 H   0  0  0  0  0  0  0  0  0  0  0  0
  -11.5326  -26.1982   31.4797 H   0  0  0  0  0  0  0  0  0  0  0  0
  -10.5638  -26.8315   32.8662 H   0  0  0  0  0  0  0  0  0  0  0  0
   -9.6412  -24.9718   30.6311 H   0  0  0  0  0  0  0  0  0  0  0  0
   -8.6345  -26.0466   31.7007 H   0  0  0  0  0  0  0  0  0  0  0  0
   -9.1743  -25.0294   33.8139 H   0  0  0  0  0  0  0  0  0  0  0  0
   -9.1472  -23.5302   32.7171 H   0  0  0  0  0  0  0  0  0  0  0  0
  -11.8774  -25.2010   29.7866 H   0  0  0  0  0  0  0  0  0  0  0  0
  1  2  1  0
  2  3  1  0
  3  4  1  0
  4  5  2  0
  5  6  1  0
  6  7  1  0
  7  8  2  0
  8  9  1  0
  9 10  1  0
 10 11  1  0
 11 12  1  0
 12 13  2  3
 13 14  1  0
 14 15  1  0
 15 16  2  0
 16 17  1  0
 17 18  2  0
 18 19  1  0
 19 20  2  0
 13 21  1  0
 21 22  1  0
 22 23  1  0
 23 24  1  0
 24 25  1  0
  9 26  2  0
 26 27  1  0
 27  3  2  0
 26  6  1  0
 20 15  1  0
 25 21  1  0
  1 28  1  0
  1 29  1  0
  2 30  1  0
  2 31  1  0
  4 32  1  0
  5 33  1  0
  7 34  1  0
  8 35  1  0
 10 36  1  0
 10 37  1  0
 11 38  1  0
 11 39  1  0
 14 40  1  0
 16 41  1  0
 17 42  1  0
 18 43  1  0
 19 44  1  0
 20 45  1  0
 22 46  1  0
 22 47  1  0
 23 48  1  0
 23 49  1  0
 24 50  1  0
 24 51  1  0
 25 52  1  0
 25 53  1  0
 27 54  1  0
M  END
>  <Energy>  (961) 
775.45042148222035

>  <compound_id>  (961) 
1376

>  <target_id>  (961) 
1

>  <reference_id>  (961) 
42

>  <inspiration_ids>  (961) 
[42, 47]

>  <energy_score>  (961) 
742.9940682529013

>  <distance_score>  (961) 
3.84585478990236

>  <path>  (961) 
/opt/xchem-fragalysis-2/maxwin/BulkDock/SCRATCH/505732/C1376-P42/C1376-P42.minimised.mol

>  <scratch_subdir>  (961) 
/opt/xchem-fragalysis-2/maxwin/BulkDock/SCRATCH/505732/C1376-P42

>  <fragmenstein_runtime>  (961) 
12.480392932891846

>  <fragmenstein_outcome>  (961) 
too moved

>  <fragmenstein_mode>  (961) 
expansion

>  <fragmenstein_error>  (961) 


$$$$
C1376-P47
     RDKit          3D

 54 57  0  0  0  0  0  0  0  0999 V2000
  -11.7748  -28.0775   29.5976 N   0  0  0  0  0  0  0  0  0  0  0  0
  -12.1477  -28.0247   28.2117 C   0  0  0  0  0  0  0  0  0  0  0  0
  -11.8876  -26.7070   27.5906 C   0  0  0  0  0  0  0  0  0  0  0  0
  -11.3279  -26.8222   26.2636 C   0  0  0  0  0  0  0  0  0  0  0  0
  -11.4105  -25.7715   25.4644 C   0  0  0  0  0  0  0  0  0  0  0  0
  -11.8638  -24.5788   25.9603 N   0  0  0  0  0  0  0  0  0  0  0  0
  -12.0674  -23.4438   25.2656 C   0  0  0  0  0  0  0  0  0  0  0  0
  -12.0308  -22.4497   26.1947 C   0  0  0  0  0  0  0  0  0  0  0  0
  -11.9791  -22.9778   27.5004 C   0  0  0  0  0  0  0  0  0  0  0  0
  -11.7615  -22.0831   28.6667 C   0  0  0  0  0  0  0  0  0  0  0  0
  -11.8192  -22.6217   30.0625 C   0  0  0  0  0  0  0  0  0  0  0  0
  -13.0905  -22.4907   30.7477 N   0  0  0  0  0  0  0  0  0  0  0  0
  -13.2346  -23.0420   31.7998 C   0  0  0  0  0  0  0  0  0  0  0  0
  -14.3054  -22.9857   32.7423 N   0  0  0  0  0  0  0  0  0  0  0  0
  -15.4550  -22.2081   32.7706 C   0  0  0  0  0  0  0  0  0  0  0  0
  -16.6566  -22.5950   32.1875 C   0  0  0  0  0  0  0  0  0  0  0  0
  -17.8009  -21.7977   32.2902 C   0  0  0  0  0  0  0  0  0  0  0  0
  -17.7645  -20.6155   33.0229 C   0  0  0  0  0  0  0  0  0  0  0  0
  -16.5863  -20.2359   33.6546 C   0  0  0  0  0  0  0  0  0  0  0  0
  -15.4432  -21.0242   33.5200 C   0  0  0  0  0  0  0  0  0  0  0  0
  -12.2950  -23.9560   32.6293 N   0  0  0  0  0  0  0  0  0  0  0  0
  -10.3586  -24.3182   32.2109 C   0  0  0  0  0  0  0  0  0  0  0  0
   -9.8126  -25.5159   31.3438 C   0  0  0  0  0  0  0  0  0  0  0  0
  -10.7760  -26.1231   32.2041 C   0  0  0  0  0  0  0  0  0  0  0  0
  -11.0934  -24.5183   32.3856 C   0  0  0  0  0  0  0  0  0  0  0  0
  -12.0654  -24.3432   27.3159 C   0  0  0  0  0  0  0  0  0  0  0  0
  -12.1943  -25.5023   28.1246 C   0  0  0  0  0  0  0  0  0  0  0  0
  -12.2151  -27.2817   30.0560 H   0  0  0  0  0  0  0  0  0  0  0  0
  -10.7680  -27.9234   29.6826 H   0  0  0  0  0  0  0  0  0  0  0  0
  -13.1997  -28.2827   28.0781 H   0  0  0  0  0  0  0  0  0  0  0  0
  -11.6260  -28.8210   27.6886 H   0  0  0  0  0  0  0  0  0  0  0  0
  -10.9023  -27.7433   25.8923 H   0  0  0  0  0  0  0  0  0  0  0  0
  -11.0427  -25.7943   24.4653 H   0  0  0  0  0  0  0  0  0  0  0  0
  -12.0614  -23.3710   24.1903 H   0  0  0  0  0  0  0  0  0  0  0  0
  -11.9883  -21.4140   25.9121 H   0  0  0  0  0  0  0  0  0  0  0  0
  -12.3496  -21.1812   28.6207 H   0  0  0  0  0  0  0  0  0  0  0  0
  -10.7276  -21.7409   28.5285 H   0  0  0  0  0  0  0  0  0  0  0  0
  -11.4672  -23.6425   30.0045 H   0  0  0  0  0  0  0  0  0  0  0  0
  -11.1254  -22.0019   30.6399 H   0  0  0  0  0  0  0  0  0  0  0  0
  -14.0494  -23.5205   33.5626 H   0  0  0  0  0  0  0  0  0  0  0  0
  -16.7202  -23.5302   31.6498 H   0  0  0  0  0  0  0  0  0  0  0  0
  -18.7249  -22.1114   31.8127 H   0  0  0  0  0  0  0  0  0  0  0  0
  -18.6562  -19.9987   33.1108 H   0  0  0  0  0  0  0  0  0  0  0  0
  -16.5584  -19.3348   34.2609 H   0  0  0  0  0  0  0  0  0  0  0  0
  -14.5254  -20.7172   34.0169 H   0  0  0  0  0  0  0  0  0  0  0  0
   -9.5594  -24.0888   33.1223 H   0  0  0  0  0  0  0  0  0  0  0  0
  -10.0302  -23.3207   31.6533 H   0  0  0  0  0  0  0  0  0  0  0  0
   -8.7651  -25.7498   31.5339 H   0  0  0  0  0  0  0  0  0  0  0  0
  -10.0580  -25.4587   30.2808 H   0  0  0  0  0  0  0  0  0  0  0  0
  -10.3937  -26.5642   33.1267 H   0  0  0  0  0  0  0  0  0  0  0  0
  -11.5131  -26.7171   31.6870 H   0  0  0  0  0  0  0  0  0  0  0  0
  -11.8550  -24.8671   31.4522 H   0  0  0  0  0  0  0  0  0  0  0  0
  -11.3499  -24.8942   33.5486 H   0  0  0  0  0  0  0  0  0  0  0  0
  -12.6435  -25.3986   29.1068 H   0  0  0  0  0  0  0  0  0  0  0  0
  1  2  1  0
  2  3  1  0
  3  4  1  0
  4  5  2  0
  5  6  1  0
  6  7  1  0
  7  8  2  0
  8  9  1  0
  9 10  1  0
 10 11  1  0
 11 12  1  0
 12 13  2  3
 13 14  1  0
 14 15  1  0
 15 16  2  0
 16 17  1  0
 17 18  2  0
 18 19  1  0
 19 20  2  0
 13 21  1  0
 21 22  1  0
 22 23  1  0
 23 24  1  0
 24 25  1  0
  9 26  2  0
 26 27  1  0
 27  3  2  0
 26  6  1  0
 20 15  1  0
 25 21  1  0
  1 28  1  0
  1 29  1  0
  2 30  1  0
  2 31  1  0
  4 32  1  0
  5 33  1  0
  7 34  1  0
  8 35  1  0
 10 36  1  0
 10 37  1  0
 11 38  1  0
 11 39  1  0
 14 40  1  0
 16 41  1  0
 17 42  1  0
 18 43  1  0
 19 44  1  0
 20 45  1  0
 22 46  1  0
 22 47  1  0
 23 48  1  0
 23 49  1  0
 24 50  1  0
 24 51  1  0
 25 52  1  0
 25 53  1  0
 27 54  1  0
M  END
>  <Energy>  (962) 
741.62188151363171

>  <compound_id>  (962) 
1376

>  <target_id>  (962) 
1

>  <reference_id>  (962) 
47

>  <inspiration_ids>  (962) 
[42, 47]

>  <energy_score>  (962) 
709.1655282843095

>  <distance_score>  (962) 
3.45761498977408

>  <path>  (962) 
/opt/xchem-fragalysis-2/maxwin/BulkDock/SCRATCH/505732/C1376-P47/C1376-P47.minimised.mol

>  <scratch_subdir>  (962) 
/opt/xchem-fragalysis-2/maxwin/BulkDock/SCRATCH/505732/C1376-P47

>  <fragmenstein_runtime>  (962) 
14.40578031539917

>  <fragmenstein_outcome>  (962) 
too moved

>  <fragmenstein_mode>  (962) 
expansion

>  <fragmenstein_error>  (962) 


$$$$
C1973-P42
     RDKit          3D

 49 52  0  0  0  0  0  0  0  0999 V2000
  -11.4482  -22.2851   32.0285 C   0  0  0  0  0  0  0  0  0  0  0  0
  -10.9456  -23.6380   31.6937 C   0  0  0  0  0  0  0  0  0  0  0  0
  -10.2570  -24.3854   32.5580 N   0  0  0  0  0  0  0  0  0  0  0  0
   -9.9513  -25.8273   31.7870 S   0  0  0  0  0  0  0  0  0  0  0  0
  -10.7402  -25.3504   30.3242 C   0  0  0  0  0  0  0  0  0  0  0  0
  -10.8785  -26.1043   29.1971 N   0  0  0  0  0  0  0  0  0  0  0  0
  -11.3197  -27.4816   29.3414 C   0  0  0  0  0  0  0  0  0  0  0  0
  -12.5363  -27.9684   28.5059 C   0  0  0  0  0  0  0  0  0  0  0  0
  -12.8366  -27.2143   27.2723 N   0  0  0  0  0  0  0  0  0  0  0  0
  -14.1001  -26.7721   27.0081 C   0  0  0  0  0  0  0  0  0  0  0  0
  -15.2276  -26.9295   27.8332 C   0  0  0  0  0  0  0  0  0  0  0  0
  -15.7732  -25.6663   27.7893 C   0  0  0  0  0  0  0  0  0  0  0  0
  -14.8903  -24.9512   27.0020 N   0  0  0  0  0  0  0  0  0  0  0  0
  -13.9909  -23.8731   27.1222 C   0  0  0  0  0  0  0  0  0  0  0  0
  -13.4451  -23.3307   26.0420 C   0  0  0  0  0  0  0  0  0  0  0  0
  -13.9442  -23.8917   24.8226 C   0  0  0  0  0  0  0  0  0  0  0  0
  -14.0717  -22.8604   23.7744 C   0  0  0  0  0  0  0  0  0  0  0  0
  -15.3361  -22.1128   23.9625 N   0  0  0  0  0  0  0  0  0  0  0  0
  -14.3140  -25.2034   24.7857 C   0  0  0  0  0  0  0  0  0  0  0  0
  -14.5381  -25.8545   26.0382 C   0  0  0  0  0  0  0  0  0  0  0  0
  -11.7462  -26.3433   26.8214 C   0  0  0  0  0  0  0  0  0  0  0  0
  -10.7113  -27.2147   26.1698 C   0  0  0  0  0  0  0  0  0  0  0  0
  -11.3365  -25.4093   27.9917 C   0  0  0  0  0  0  0  0  0  0  0  0
  -10.3945  -24.2976   27.5639 C   0  0  0  0  0  0  0  0  0  0  0  0
  -11.1551  -24.1105   30.4072 N   0  0  0  0  0  0  0  0  0  0  0  0
  -12.2230  -21.9789   31.3233 H   0  0  0  0  0  0  0  0  0  0  0  0
  -10.6543  -21.5439   31.9343 H   0  0  0  0  0  0  0  0  0  0  0  0
  -11.8772  -22.2535   33.0332 H   0  0  0  0  0  0  0  0  0  0  0  0
  -11.4718  -27.7914   30.3812 H   0  0  0  0  0  0  0  0  0  0  0  0
  -10.4467  -28.0013   29.0081 H   0  0  0  0  0  0  0  0  0  0  0  0
  -12.3760  -29.0118   28.2140 H   0  0  0  0  0  0  0  0  0  0  0  0
  -13.3947  -28.0130   29.1778 H   0  0  0  0  0  0  0  0  0  0  0  0
  -15.4762  -27.6845   28.5639 H   0  0  0  0  0  0  0  0  0  0  0  0
  -16.5976  -25.2206   28.3266 H   0  0  0  0  0  0  0  0  0  0  0  0
  -13.5846  -23.5955   28.0760 H   0  0  0  0  0  0  0  0  0  0  0  0
  -12.6977  -22.5464   26.0724 H   0  0  0  0  0  0  0  0  0  0  0  0
  -13.2230  -22.1656   23.7685 H   0  0  0  0  0  0  0  0  0  0  0  0
  -14.0569  -23.3444   22.8089 H   0  0  0  0  0  0  0  0  0  0  0  0
  -15.9455  -22.6499   24.5849 H   0  0  0  0  0  0  0  0  0  0  0  0
  -15.1217  -21.2708   24.5213 H   0  0  0  0  0  0  0  0  0  0  0  0
  -14.7082  -25.6770   23.8955 H   0  0  0  0  0  0  0  0  0  0  0  0
  -12.0632  -25.6937   26.0063 H   0  0  0  0  0  0  0  0  0  0  0  0
  -10.5376  -26.8651   25.1526 H   0  0  0  0  0  0  0  0  0  0  0  0
  -11.0576  -28.2414   26.0267 H   0  0  0  0  0  0  0  0  0  0  0  0
   -9.7851  -27.2013   26.7385 H   0  0  0  0  0  0  0  0  0  0  0  0
  -12.2515  -24.9389   28.3251 H   0  0  0  0  0  0  0  0  0  0  0  0
   -9.4322  -24.3653   28.0661 H   0  0  0  0  0  0  0  0  0  0  0  0
  -10.8140  -23.3206   27.8313 H   0  0  0  0  0  0  0  0  0  0  0  0
  -10.2416  -24.2867   26.4826 H   0  0  0  0  0  0  0  0  0  0  0  0
  1  2  1  0
  2  3  2  0
  3  4  1  0
  4  5  1  0
  5  6  1  0
  6  7  1  0
  7  8  1  0
  8  9  1  0
  9 10  1  0
 10 11  1  0
 11 12  2  0
 12 13  1  0
 13 14  1  0
 14 15  2  0
 15 16  1  0
 16 17  1  0
 17 18  1  0
 16 19  2  0
 19 20  1  0
  9 21  1  0
 21 22  1  0
 21 23  1  0
 23 24  1  0
  5 25  2  0
 25  2  1  0
 23  6  1  0
 20 10  2  0
 20 13  1  0
  1 26  1  0
  1 27  1  0
  1 28  1  0
  7 29  1  0
  7 30  1  0
  8 31  1  0
  8 32  1  0
 11 33  1  0
 12 34  1  0
 14 35  1  0
 15 36  1  0
 17 37  1  0
 17 38  1  0
 18 39  1  0
 18 40  1  0
 19 41  1  0
 21 42  1  0
 22 43  1  0
 22 44  1  0
 22 45  1  0
 23 46  1  0
 24 47  1  0
 24 48  1  0
 24 49  1  0
M  END
>  <Energy>  (963) 
208.91750692302301

>  <compound_id>  (963) 
1973

>  <target_id>  (963) 
1

>  <reference_id>  (963) 
42

>  <inspiration_ids>  (963) 
[42, 49]

>  <energy_score>  (963) 
-13.737670624822726

>  <distance_score>  (963) 
2.7557875833732375

>  <path>  (963) 
/opt/xchem-fragalysis-2/maxwin/BulkDock/SCRATCH/505732/C1973-P42/C1973-P42.minimised.mol

>  <scratch_subdir>  (963) 
/opt/xchem-fragalysis-2/maxwin/BulkDock/SCRATCH/505732/C1973-P42

>  <fragmenstein_runtime>  (963) 
11.225097417831421

>  <fragmenstein_outcome>  (963) 
too moved

>  <fragmenstein_mode>  (963) 
expansion

>  <fragmenstein_error>  (963) 


$$$$
C1973-P49
     RDKit          3D

 49 52  0  0  0  0  0  0  0  0999 V2000
  -12.3218  -22.0515   32.9857 C   0  0  0  0  0  0  0  0  0  0  0  0
  -11.4992  -23.1804   32.4925 C   0  0  0  0  0  0  0  0  0  0  0  0
  -10.4382  -23.5987   33.1873 N   0  0  0  0  0  0  0  0  0  0  0  0
   -9.8296  -24.9151   32.3546 S   0  0  0  0  0  0  0  0  0  0  0  0
  -10.9908  -24.8094   31.0892 C   0  0  0  0  0  0  0  0  0  0  0  0
  -10.8113  -25.4194   29.8820 N   0  0  0  0  0  0  0  0  0  0  0  0
  -11.8920  -26.2895   29.3504 C   0  0  0  0  0  0  0  0  0  0  0  0
  -12.7409  -25.6327   28.2078 C   0  0  0  0  0  0  0  0  0  0  0  0
  -11.9037  -25.0933   27.0941 N   0  0  0  0  0  0  0  0  0  0  0  0
  -12.4136  -24.1118   26.2816 C   0  0  0  0  0  0  0  0  0  0  0  0
  -11.5914  -23.1462   25.6259 C   0  0  0  0  0  0  0  0  0  0  0  0
  -12.3563  -22.3742   24.8061 C   0  0  0  0  0  0  0  0  0  0  0  0
  -13.6459  -22.7162   25.0583 N   0  0  0  0  0  0  0  0  0  0  0  0
  -14.7426  -21.9586   24.7196 C   0  0  0  0  0  0  0  0  0  0  0  0
  -15.9567  -22.3753   25.0247 C   0  0  0  0  0  0  0  0  0  0  0  0
  -16.0919  -23.7139   25.5613 C   0  0  0  0  0  0  0  0  0  0  0  0
  -17.4931  -24.2020   25.4905 C   0  0  0  0  0  0  0  0  0  0  0  0
  -18.0701  -23.9101   24.1720 N   0  0  0  0  0  0  0  0  0  0  0  0
  -15.0193  -24.4279   25.9873 C   0  0  0  0  0  0  0  0  0  0  0  0
  -13.7082  -23.8717   25.8438 C   0  0  0  0  0  0  0  0  0  0  0  0
  -10.4855  -24.9212   27.4886 C   0  0  0  0  0  0  0  0  0  0  0  0
   -9.6919  -26.1680   27.2087 C   0  0  0  0  0  0  0  0  0  0  0  0
  -10.4330  -24.3762   28.9051 C   0  0  0  0  0  0  0  0  0  0  0  0
   -9.0720  -23.8010   29.1921 C   0  0  0  0  0  0  0  0  0  0  0  0
  -11.8225  -23.8111   31.2945 N   0  0  0  0  0  0  0  0  0  0  0  0
  -13.0223  -21.7134   32.2162 H   0  0  0  0  0  0  0  0  0  0  0  0
  -11.6881  -21.2020   33.2595 H   0  0  0  0  0  0  0  0  0  0  0  0
  -12.8964  -22.3537   33.8664 H   0  0  0  0  0  0  0  0  0  0  0  0
  -12.5164  -26.7009   30.1372 H   0  0  0  0  0  0  0  0  0  0  0  0
  -11.4312  -27.2030   28.9670 H   0  0  0  0  0  0  0  0  0  0  0  0
  -13.4274  -26.3854   27.8058 H   0  0  0  0  0  0  0  0  0  0  0  0
  -13.3370  -24.8212   28.6437 H   0  0  0  0  0  0  0  0  0  0  0  0
  -10.5234  -23.0604   25.6111 H   0  0  0  0  0  0  0  0  0  0  0  0
  -12.0996  -21.5620   24.1393 H   0  0  0  0  0  0  0  0  0  0  0  0
  -14.5674  -20.9637   24.3608 H   0  0  0  0  0  0  0  0  0  0  0  0
  -16.8109  -21.7200   24.8928 H   0  0  0  0  0  0  0  0  0  0  0  0
  -18.1080  -23.7424   26.2729 H   0  0  0  0  0  0  0  0  0  0  0  0
  -17.5252  -25.2859   25.6508 H   0  0  0  0  0  0  0  0  0  0  0  0
  -18.4926  -22.9815   24.1920 H   0  0  0  0  0  0  0  0  0  0  0  0
  -18.8557  -24.5430   24.0168 H   0  0  0  0  0  0  0  0  0  0  0  0
  -15.1270  -25.4338   26.3741 H   0  0  0  0  0  0  0  0  0  0  0  0
   -9.9607  -24.1842   26.8942 H   0  0  0  0  0  0  0  0  0  0  0  0
   -8.7020  -26.1288   27.6613 H   0  0  0  0  0  0  0  0  0  0  0  0
   -9.5658  -26.2621   26.1317 H   0  0  0  0  0  0  0  0  0  0  0  0
  -10.1872  -27.0702   27.5351 H   0  0  0  0  0  0  0  0  0  0  0  0
  -11.1409  -23.5324   28.9519 H   0  0  0  0  0  0  0  0  0  0  0  0
   -9.0228  -23.3035   30.1598 H   0  0  0  0  0  0  0  0  0  0  0  0
   -8.8198  -23.0515   28.4350 H   0  0  0  0  0  0  0  0  0  0  0  0
   -8.3021  -24.5709   29.1750 H   0  0  0  0  0  0  0  0  0  0  0  0
  1  2  1  0
  2  3  2  0
  3  4  1  0
  4  5  1  0
  5  6  1  0
  6  7  1  0
  7  8  1  0
  8  9  1  0
  9 10  1  0
 10 11  1  0
 11 12  2  0
 12 13  1  0
 13 14  1  0
 14 15  2  0
 15 16  1  0
 16 17  1  0
 17 18  1  0
 16 19  2  0
 19 20  1  0
  9 21  1  0
 21 22  1  0
 21 23  1  0
 23 24  1  0
  5 25  2  0
 25  2  1  0
 23  6  1  0
 20 10  2  0
 20 13  1  0
  1 26  1  0
  1 27  1  0
  1 28  1  0
  7 29  1  0
  7 30  1  0
  8 31  1  0
  8 32  1  0
 11 33  1  0
 12 34  1  0
 14 35  1  0
 15 36  1  0
 17 37  1  0
 17 38  1  0
 18 39  1  0
 18 40  1  0
 19 41  1  0
 21 42  1  0
 22 43  1  0
 22 44  1  0
 22 45  1  0
 23 46  1  0
 24 47  1  0
 24 48  1  0
 24 49  1  0
M  END
>  <Energy>  (964) 
128.96452154937259

>  <compound_id>  (964) 
1973

>  <target_id>  (964) 
1

>  <reference_id>  (964) 
49

>  <inspiration_ids>  (964) 
[42, 49]

>  <energy_score>  (964) 
-39.53880038576267

>  <distance_score>  (964) 
1.9194480520580146

>  <path>  (964) 
/opt/xchem-fragalysis-2/maxwin/BulkDock/SCRATCH/505732/C1973-P49/C1973-P49.minimised.mol

>  <scratch_subdir>  (964) 
/opt/xchem-fragalysis-2/maxwin/BulkDock/SCRATCH/505732/C1973-P49

>  <fragmenstein_runtime>  (964) 
6.015562295913696

>  <fragmenstein_outcome>  (964) 
too moved

>  <fragmenstein_mode>  (964) 
expansion

>  <fragmenstein_error>  (964) 


$$$$
C2243-P42
     RDKit          3D

 50 54  0  0  0  0  0  0  0  0999 V2000
  -14.6398  -21.8792   24.4719 N   0  0  0  0  0  0  0  0  0  0  0  0
  -13.2835  -22.1546   25.0075 C   0  0  0  0  0  0  0  0  0  0  0  0
  -13.1699  -23.3491   25.9420 C   0  0  0  0  0  0  0  0  0  0  0  0
  -13.9668  -24.4956   25.4847 C   0  0  0  0  0  0  0  0  0  0  0  0
  -13.8995  -25.6598   26.1288 C   0  0  0  0  0  0  0  0  0  0  0  0
  -12.9997  -25.8027   27.1590 N   0  0  0  0  0  0  0  0  0  0  0  0
  -12.6546  -26.9322   27.8561 C   0  0  0  0  0  0  0  0  0  0  0  0
  -11.6489  -26.5524   28.7065 C   0  0  0  0  0  0  0  0  0  0  0  0
  -11.4224  -25.2125   28.5990 N   0  0  0  0  0  0  0  0  0  0  0  0
  -12.2344  -24.7609   27.6561 C   0  0  0  0  0  0  0  0  0  0  0  0
  -12.4065  -23.4284   27.0854 C   0  0  0  0  0  0  0  0  0  0  0  0
  -11.7661  -22.3396   27.6972 N   0  0  0  0  0  0  0  0  0  0  0  0
  -11.1383  -22.3025   29.0638 C   0  0  0  0  0  0  0  0  0  0  0  0
  -12.1109  -21.8467   30.1616 C   0  0  0  0  0  0  0  0  0  0  0  0
  -12.3943  -21.8714   31.6005 N   0  0  0  0  0  0  0  0  0  0  0  0
  -11.6107  -22.5183   32.5159 C   0  0  0  0  0  0  0  0  0  0  0  0
  -12.3713  -22.6007   33.6626 C   0  0  0  0  0  0  0  0  0  0  0  0
  -13.5438  -21.9124   33.6025 N   0  0  0  0  0  0  0  0  0  0  0  0
  -13.6839  -21.5728   32.3403 C   0  0  0  0  0  0  0  0  0  0  0  0
  -15.1960  -20.6896   31.8496 C   0  0  0  0  0  0  0  0  0  0  0  0
  -16.1259  -20.1252   32.6273 N   0  0  0  0  0  0  0  0  0  0  0  0
  -16.7059  -19.0889   31.7732 O   0  0  0  0  0  0  0  0  0  0  0  0
  -15.9526  -19.0319   30.4973 C   0  0  0  0  0  0  0  0  0  0  0  0
  -16.1191  -17.6302   28.9206 C   0  0  0  0  0  0  0  0  0  0  0  0
  -15.0863  -16.6001   28.4637 C   0  0  0  0  0  0  0  0  0  0  0  0
  -15.7520  -16.0882   27.2501 C   0  0  0  0  0  0  0  0  0  0  0  0
  -16.0508  -17.4539   27.0431 C   0  0  0  0  0  0  0  0  0  0  0  0
  -15.2262  -20.1309   30.6014 N   0  0  0  0  0  0  0  0  0  0  0  0
  -14.8192  -20.8837   24.6766 H   0  0  0  0  0  0  0  0  0  0  0  0
  -15.3225  -22.3611   25.0515 H   0  0  0  0  0  0  0  0  0  0  0  0
  -12.9069  -21.2535   25.4901 H   0  0  0  0  0  0  0  0  0  0  0  0
  -12.6289  -22.3296   24.1450 H   0  0  0  0  0  0  0  0  0  0  0  0
  -14.6156  -24.4076   24.6192 H   0  0  0  0  0  0  0  0  0  0  0  0
  -14.4979  -26.5071   25.8388 H   0  0  0  0  0  0  0  0  0  0  0  0
  -13.1186  -27.8882   27.6760 H   0  0  0  0  0  0  0  0  0  0  0  0
  -11.0959  -27.1637   29.4093 H   0  0  0  0  0  0  0  0  0  0  0  0
  -12.0387  -21.4217   27.3657 H   0  0  0  0  0  0  0  0  0  0  0  0
  -10.3597  -21.5597   28.9807 H   0  0  0  0  0  0  0  0  0  0  0  0
  -10.7278  -23.2777   29.2901 H   0  0  0  0  0  0  0  0  0  0  0  0
  -12.4043  -20.8815   29.7692 H   0  0  0  0  0  0  0  0  0  0  0  0
  -12.7058  -22.6857   29.8897 H   0  0  0  0  0  0  0  0  0  0  0  0
  -10.6739  -22.9823   32.2525 H   0  0  0  0  0  0  0  0  0  0  0  0
  -12.1507  -23.1637   34.5540 H   0  0  0  0  0  0  0  0  0  0  0  0
  -17.0957  -17.2606   29.1838 H   0  0  0  0  0  0  0  0  0  0  0  0
  -14.6594  -15.9635   29.1922 H   0  0  0  0  0  0  0  0  0  0  0  0
  -14.2006  -17.0568   28.0147 H   0  0  0  0  0  0  0  0  0  0  0  0
  -16.5165  -15.3845   27.3974 H   0  0  0  0  0  0  0  0  0  0  0  0
  -15.1881  -15.7450   26.3662 H   0  0  0  0  0  0  0  0  0  0  0  0
  -15.2025  -17.6331   26.3977 H   0  0  0  0  0  0  0  0  0  0  0  0
  -16.8525  -17.4649   26.3138 H   0  0  0  0  0  0  0  0  0  0  0  0
  1  2  1  0
  2  3  1  0
  3  4  1  0
  4  5  2  0
  5  6  1  0
  6  7  1  0
  7  8  2  0
  8  9  1  0
  9 10  2  0
 10 11  1  0
 11 12  1  0
 12 13  1  0
 13 14  1  0
 14 15  1  0
 15 16  1  0
 16 17  2  0
 17 18  1  0
 18 19  2  0
 19 20  1  0
 20 21  2  0
 21 22  1  0
 22 23  1  0
 23 24  1  0
 24 25  1  0
 25 26  1  0
 26 27  1  0
 23 28  2  0
 11  3  2  0
 19 15  1  0
 28 20  1  0
 10  6  1  0
 27 24  1  0
  1 29  1  0
  1 30  1  0
  2 31  1  0
  2 32  1  0
  4 33  1  0
  5 34  1  0
  7 35  1  0
  8 36  1  0
 12 37  1  0
 13 38  1  0
 13 39  1  0
 14 40  1  0
 14 41  1  0
 16 42  1  0
 17 43  1  0
 24 44  1  0
 25 45  1  0
 25 46  1  0
 26 47  1  0
 26 48  1  0
 27 49  1  0
 27 50  1  0
M  END
>  <Energy>  (965) 
338.98093827448321

>  <compound_id>  (965) 
2243

>  <target_id>  (965) 
1

>  <reference_id>  (965) 
42

>  <inspiration_ids>  (965) 
[42, 52]

>  <energy_score>  (965) 
183.42953458451257

>  <distance_score>  (965) 
1.9946280136210384

>  <path>  (965) 
/opt/xchem-fragalysis-2/maxwin/BulkDock/SCRATCH/505732/C2243-P42/C2243-P42.minimised.mol

>  <scratch_subdir>  (965) 
/opt/xchem-fragalysis-2/maxwin/BulkDock/SCRATCH/505732/C2243-P42

>  <fragmenstein_runtime>  (965) 
7.60624885559082

>  <fragmenstein_outcome>  (965) 
too moved

>  <fragmenstein_mode>  (965) 
expansion

>  <fragmenstein_error>  (965) 


$$$$
C2243-P52
     RDKit          3D

 50 54  0  0  0  0  0  0  0  0999 V2000
  -13.5029  -22.7890   24.9048 N   0  0  0  0  0  0  0  0  0  0  0  0
  -12.2498  -22.6874   25.6725 C   0  0  0  0  0  0  0  0  0  0  0  0
  -12.1643  -23.5938   26.8796 C   0  0  0  0  0  0  0  0  0  0  0  0
  -12.3517  -25.0108   26.5243 C   0  0  0  0  0  0  0  0  0  0  0  0
  -12.2646  -25.9539   27.4638 C   0  0  0  0  0  0  0  0  0  0  0  0
  -11.9184  -25.5726   28.7395 N   0  0  0  0  0  0  0  0  0  0  0  0
  -11.6753  -26.3654   29.8268 C   0  0  0  0  0  0  0  0  0  0  0  0
  -11.1594  -25.5225   30.7790 C   0  0  0  0  0  0  0  0  0  0  0  0
  -11.2118  -24.2253   30.3575 N   0  0  0  0  0  0  0  0  0  0  0  0
  -11.7032  -24.2594   29.1310 C   0  0  0  0  0  0  0  0  0  0  0  0
  -11.9566  -23.1962   28.1789 C   0  0  0  0  0  0  0  0  0  0  0  0
  -11.9795  -21.8520   28.6093 N   0  0  0  0  0  0  0  0  0  0  0  0
  -11.8882  -21.3461   30.0107 C   0  0  0  0  0  0  0  0  0  0  0  0
  -13.0753  -21.7524   30.9040 C   0  0  0  0  0  0  0  0  0  0  0  0
  -13.3381  -21.0222   32.1344 N   0  0  0  0  0  0  0  0  0  0  0  0
  -12.6490  -21.3829   33.2705 C   0  0  0  0  0  0  0  0  0  0  0  0
  -13.5355  -21.1552   34.2855 C   0  0  0  0  0  0  0  0  0  0  0  0
  -14.6087  -20.4258   33.8608 N   0  0  0  0  0  0  0  0  0  0  0  0
  -14.5032  -20.3465   32.5455 C   0  0  0  0  0  0  0  0  0  0  0  0
  -15.5476  -19.4379   31.6893 C   0  0  0  0  0  0  0  0  0  0  0  0
  -16.6633  -18.8543   32.1284 N   0  0  0  0  0  0  0  0  0  0  0  0
  -17.0425  -17.9811   31.0829 O   0  0  0  0  0  0  0  0  0  0  0  0
  -16.0518  -17.9221   30.1348 C   0  0  0  0  0  0  0  0  0  0  0  0
  -15.7809  -17.1429   28.3055 C   0  0  0  0  0  0  0  0  0  0  0  0
  -16.4259  -16.7158   26.9097 C   0  0  0  0  0  0  0  0  0  0  0  0
  -15.1839  -16.5639   26.3388 C   0  0  0  0  0  0  0  0  0  0  0  0
  -14.9994  -16.0389   27.8072 C   0  0  0  0  0  0  0  0  0  0  0  0
  -15.2259  -18.9563   30.4402 N   0  0  0  0  0  0  0  0  0  0  0  0
  -13.8758  -21.8274   24.9008 H   0  0  0  0  0  0  0  0  0  0  0  0
  -14.1791  -23.3162   25.4495 H   0  0  0  0  0  0  0  0  0  0  0  0
  -12.0665  -21.6525   25.9611 H   0  0  0  0  0  0  0  0  0  0  0  0
  -11.4203  -22.9310   25.0004 H   0  0  0  0  0  0  0  0  0  0  0  0
  -12.5964  -25.2926   25.5056 H   0  0  0  0  0  0  0  0  0  0  0  0
  -12.4119  -27.0059   27.2587 H   0  0  0  0  0  0  0  0  0  0  0  0
  -11.8107  -27.4363   29.7969 H   0  0  0  0  0  0  0  0  0  0  0  0
  -10.7588  -25.7768   31.7523 H   0  0  0  0  0  0  0  0  0  0  0  0
  -11.5165  -21.2298   27.9456 H   0  0  0  0  0  0  0  0  0  0  0  0
  -11.8419  -20.2565   29.9449 H   0  0  0  0  0  0  0  0  0  0  0  0
  -10.9491  -21.6634   30.4667 H   0  0  0  0  0  0  0  0  0  0  0  0
  -13.9982  -21.7893   30.3636 H   0  0  0  0  0  0  0  0  0  0  0  0
  -12.9081  -22.7815   31.2195 H   0  0  0  0  0  0  0  0  0  0  0  0
  -11.7267  -21.9470   33.2423 H   0  0  0  0  0  0  0  0  0  0  0  0
  -13.4620  -21.5257   35.2932 H   0  0  0  0  0  0  0  0  0  0  0  0
  -15.0814  -17.8990   28.0758 H   0  0  0  0  0  0  0  0  0  0  0  0
  -16.6828  -15.6575   26.8007 H   0  0  0  0  0  0  0  0  0  0  0  0
  -16.7821  -17.2845   26.0553 H   0  0  0  0  0  0  0  0  0  0  0  0
  -14.8524  -17.5362   25.9732 H   0  0  0  0  0  0  0  0  0  0  0  0
  -15.2263  -15.8730   25.4780 H   0  0  0  0  0  0  0  0  0  0  0  0
  -15.5531  -15.1882   28.0944 H   0  0  0  0  0  0  0  0  0  0  0  0
  -13.9955  -15.7822   28.0464 H   0  0  0  0  0  0  0  0  0  0  0  0
  1  2  1  0
  2  3  1  0
  3  4  1  0
  4  5  2  0
  5  6  1  0
  6  7  1  0
  7  8  2  0
  8  9  1  0
  9 10  2  0
 10 11  1  0
 11 12  1  0
 12 13  1  0
 13 14  1  0
 14 15  1  0
 15 16  1  0
 16 17  2  0
 17 18  1  0
 18 19  2  0
 19 20  1  0
 20 21  2  0
 21 22  1  0
 22 23  1  0
 23 24  1  0
 24 25  1  0
 25 26  1  0
 26 27  1  0
 23 28  2  0
 11  3  2  0
 19 15  1  0
 28 20  1  0
 10  6  1  0
 27 24  1  0
  1 29  1  0
  1 30  1  0
  2 31  1  0
  2 32  1  0
  4 33  1  0
  5 34  1  0
  7 35  1  0
  8 36  1  0
 12 37  1  0
 13 38  1  0
 13 39  1  0
 14 40  1  0
 14 41  1  0
 16 42  1  0
 17 43  1  0
 24 44  1  0
 25 45  1  0
 25 46  1  0
 26 47  1  0
 26 48  1  0
 27 49  1  0
 27 50  1  0
M  END
>  <Energy>  (966) 
271.49729892246967

>  <compound_id>  (966) 
2243

>  <target_id>  (966) 
1

>  <reference_id>  (966) 
52

>  <inspiration_ids>  (966) 
[42, 52]

>  <energy_score>  (966) 
115.94589523249635

>  <distance_score>  (966) 
2.9803332911404685

>  <path>  (966) 
/opt/xchem-fragalysis-2/maxwin/BulkDock/SCRATCH/505732/C2243-P52/C2243-P52.minimised.mol

>  <scratch_subdir>  (966) 
/opt/xchem-fragalysis-2/maxwin/BulkDock/SCRATCH/505732/C2243-P52

>  <fragmenstein_runtime>  (966) 
8.184561967849731

>  <fragmenstein_outcome>  (966) 
too moved

>  <fragmenstein_mode>  (966) 
expansion

>  <fragmenstein_error>  (966) 


$$$$
C2245-P42
     RDKit          3D

 43 46  0  0  0  0  0  0  0  0999 V2000
  -15.8722  -24.0751   24.9073 N   0  0  0  0  0  0  0  0  0  0  0  0
  -14.6207  -24.8503   24.8703 C   0  0  0  0  0  0  0  0  0  0  0  0
  -13.5719  -24.3720   25.8670 C   0  0  0  0  0  0  0  0  0  0  0  0
  -13.2564  -22.9445   25.7598 C   0  0  0  0  0  0  0  0  0  0  0  0
  -12.5099  -22.3602   26.7014 C   0  0  0  0  0  0  0  0  0  0  0  0
  -12.0622  -23.1080   27.7652 N   0  0  0  0  0  0  0  0  0  0  0  0
  -11.4633  -22.7004   28.9208 C   0  0  0  0  0  0  0  0  0  0  0  0
  -11.3426  -23.8337   29.6881 C   0  0  0  0  0  0  0  0  0  0  0  0
  -11.8205  -24.9201   29.0246 N   0  0  0  0  0  0  0  0  0  0  0  0
  -12.2413  -24.4721   27.8600 C   0  0  0  0  0  0  0  0  0  0  0  0
  -12.9250  -25.1537   26.7878 C   0  0  0  0  0  0  0  0  0  0  0  0
  -12.9526  -26.5376   26.7716 N   0  0  0  0  0  0  0  0  0  0  0  0
  -12.6153  -27.4750   27.8263 C   0  0  0  0  0  0  0  0  0  0  0  0
  -13.7996  -28.1173   28.4919 C   0  0  0  0  0  0  0  0  0  0  0  0
  -13.7505  -29.2474   29.2852 C   0  0  0  0  0  0  0  0  0  0  0  0
  -15.0218  -29.5694   29.6638 N   0  0  0  0  0  0  0  0  0  0  0  0
  -15.9167  -28.6689   29.1413 C   0  0  0  0  0  0  0  0  0  0  0  0
  -17.3133  -28.6370   29.2441 C   0  0  0  0  0  0  0  0  0  0  0  0
  -17.9997  -27.6126   28.5900 C   0  0  0  0  0  0  0  0  0  0  0  0
  -17.2987  -26.6368   27.8985 C   0  0  0  0  0  0  0  0  0  0  0  0
  -18.0439  -25.5788   27.1718 C   0  0  0  0  0  0  0  0  0  0  0  0
  -17.6958  -24.2454   27.5863 N   0  0  0  0  0  0  0  0  0  0  0  0
  -18.7901  -25.9604   26.3177 O   0  0  0  0  0  0  0  0  0  0  0  0
  -15.9018  -26.6742   27.8185 C   0  0  0  0  0  0  0  0  0  0  0  0
  -15.1847  -27.7254   28.4248 C   0  0  0  0  0  0  0  0  0  0  0  0
  -16.1866  -23.9667   25.8743 H   0  0  0  0  0  0  0  0  0  0  0  0
  -16.6109  -24.6634   24.5067 H   0  0  0  0  0  0  0  0  0  0  0  0
  -14.2495  -24.7563   23.8554 H   0  0  0  0  0  0  0  0  0  0  0  0
  -14.8758  -25.9015   25.0141 H   0  0  0  0  0  0  0  0  0  0  0  0
  -13.6340  -22.3778   24.9127 H   0  0  0  0  0  0  0  0  0  0  0  0
  -12.2572  -21.3186   26.6831 H   0  0  0  0  0  0  0  0  0  0  0  0
  -11.2437  -21.6640   29.1240 H   0  0  0  0  0  0  0  0  0  0  0  0
  -10.9795  -23.9206   30.7063 H   0  0  0  0  0  0  0  0  0  0  0  0
  -13.5384  -26.9643   26.0522 H   0  0  0  0  0  0  0  0  0  0  0  0
  -11.9337  -27.0871   28.5828 H   0  0  0  0  0  0  0  0  0  0  0  0
  -12.0453  -28.2813   27.3471 H   0  0  0  0  0  0  0  0  0  0  0  0
  -12.9214  -29.8631   29.6020 H   0  0  0  0  0  0  0  0  0  0  0  0
  -15.2784  -30.3704   30.2263 H   0  0  0  0  0  0  0  0  0  0  0  0
  -17.8582  -29.3995   29.7937 H   0  0  0  0  0  0  0  0  0  0  0  0
  -19.0875  -27.5857   28.6197 H   0  0  0  0  0  0  0  0  0  0  0  0
  -16.9218  -24.2974   28.2854 H   0  0  0  0  0  0  0  0  0  0  0  0
  -17.1013  -24.2996   28.4430 H   0  0  0  0  0  0  0  0  0  0  0  0
  -15.3879  -25.9152   27.2559 H   0  0  0  0  0  0  0  0  0  0  0  0
  1  2  1  0
  2  3  1  0
  3  4  1  0
  4  5  2  0
  5  6  1  0
  6  7  1  0
  7  8  2  0
  8  9  1  0
  9 10  2  0
 10 11  1  0
 11 12  1  0
 12 13  1  0
 13 14  1  0
 14 15  2  0
 15 16  1  0
 16 17  1  0
 17 18  2  0
 18 19  1  0
 19 20  2  0
 20 21  1  0
 21 22  1  0
 21 23  2  0
 20 24  1  0
 24 25  2  0
 11  3  2  0
 25 14  1  0
 10  6  1  0
 25 17  1  0
  1 26  1  0
  1 27  1  0
  2 28  1  0
  2 29  1  0
  4 30  1  0
  5 31  1  0
  7 32  1  0
  8 33  1  0
 12 34  1  0
 13 35  1  0
 13 36  1  0
 15 37  1  0
 16 38  1  0
 18 39  1  0
 19 40  1  0
 22 41  1  0
 22 42  1  0
 24 43  1  0
M  END
>  <Energy>  (967) 
220.32548264159408

>  <compound_id>  (967) 
2245

>  <target_id>  (967) 
1

>  <reference_id>  (967) 
42

>  <inspiration_ids>  (967) 
[42, 62]

>  <energy_score>  (967) 
138.79197651230612

>  <distance_score>  (967) 
5.047891807595728

>  <path>  (967) 
/opt/xchem-fragalysis-2/maxwin/BulkDock/SCRATCH/505732/C2245-P42/C2245-P42.minimised.mol

>  <scratch_subdir>  (967) 
/opt/xchem-fragalysis-2/maxwin/BulkDock/SCRATCH/505732/C2245-P42

>  <fragmenstein_runtime>  (967) 
13.363823413848877

>  <fragmenstein_outcome>  (967) 
too moved

>  <fragmenstein_mode>  (967) 
expansion

>  <fragmenstein_error>  (967) 


$$$$
C2245-P62
     RDKit          3D

 43 46  0  0  0  0  0  0  0  0999 V2000
  -11.2730  -22.5648   28.1105 N   0  0  0  0  0  0  0  0  0  0  0  0
  -10.5830  -23.8635   28.0325 C   0  0  0  0  0  0  0  0  0  0  0  0
  -10.9143  -24.6798   29.2473 C   0  0  0  0  0  0  0  0  0  0  0  0
   -9.8461  -25.2012   30.0564 C   0  0  0  0  0  0  0  0  0  0  0  0
  -10.0542  -25.4703   31.3515 C   0  0  0  0  0  0  0  0  0  0  0  0
  -11.3027  -25.2008   31.8866 N   0  0  0  0  0  0  0  0  0  0  0  0
  -11.7476  -25.2350   33.1757 C   0  0  0  0  0  0  0  0  0  0  0  0
  -13.0015  -24.6678   33.1380 C   0  0  0  0  0  0  0  0  0  0  0  0
  -13.3619  -24.3499   31.8634 N   0  0  0  0  0  0  0  0  0  0  0  0
  -12.3632  -24.7689   31.1174 C   0  0  0  0  0  0  0  0  0  0  0  0
  -12.1795  -24.7305   29.6985 C   0  0  0  0  0  0  0  0  0  0  0  0
  -13.2529  -24.5481   28.8492 N   0  0  0  0  0  0  0  0  0  0  0  0
  -13.3603  -25.3115   27.5969 C   0  0  0  0  0  0  0  0  0  0  0  0
  -13.8772  -24.5876   26.3945 C   0  0  0  0  0  0  0  0  0  0  0  0
  -13.1351  -23.8227   25.5254 C   0  0  0  0  0  0  0  0  0  0  0  0
  -13.9809  -23.1695   24.6778 N   0  0  0  0  0  0  0  0  0  0  0  0
  -15.2770  -23.5294   24.9431 C   0  0  0  0  0  0  0  0  0  0  0  0
  -16.4766  -23.0070   24.4501 C   0  0  0  0  0  0  0  0  0  0  0  0
  -17.6606  -23.6196   24.8463 C   0  0  0  0  0  0  0  0  0  0  0  0
  -17.6294  -24.6784   25.7510 C   0  0  0  0  0  0  0  0  0  0  0  0
  -18.9129  -25.2071   26.2618 C   0  0  0  0  0  0  0  0  0  0  0  0
  -19.5326  -24.2940   27.1828 N   0  0  0  0  0  0  0  0  0  0  0  0
  -19.2807  -26.2661   25.8471 O   0  0  0  0  0  0  0  0  0  0  0  0
  -16.4348  -25.1352   26.3172 C   0  0  0  0  0  0  0  0  0  0  0  0
  -15.2282  -24.5288   25.9178 C   0  0  0  0  0  0  0  0  0  0  0  0
  -11.4514  -22.2019   27.1739 H   0  0  0  0  0  0  0  0  0  0  0  0
  -12.2351  -22.7689   28.4121 H   0  0  0  0  0  0  0  0  0  0  0  0
   -9.5186  -23.6397   28.0092 H   0  0  0  0  0  0  0  0  0  0  0  0
  -10.8006  -24.4048   27.1112 H   0  0  0  0  0  0  0  0  0  0  0  0
   -8.9043  -25.3271   29.5589 H   0  0  0  0  0  0  0  0  0  0  0  0
   -9.2827  -25.8481   31.9952 H   0  0  0  0  0  0  0  0  0  0  0  0
  -11.1616  -25.6202   33.9967 H   0  0  0  0  0  0  0  0  0  0  0  0
  -13.6771  -24.4766   33.9578 H   0  0  0  0  0  0  0  0  0  0  0  0
  -14.0665  -24.5979   29.4713 H   0  0  0  0  0  0  0  0  0  0  0  0
  -14.0618  -26.1119   27.7610 H   0  0  0  0  0  0  0  0  0  0  0  0
  -12.4243  -25.8214   27.3497 H   0  0  0  0  0  0  0  0  0  0  0  0
  -12.0775  -23.6176   25.4867 H   0  0  0  0  0  0  0  0  0  0  0  0
  -13.6915  -22.4218   24.0645 H   0  0  0  0  0  0  0  0  0  0  0  0
  -16.5001  -22.1421   23.7982 H   0  0  0  0  0  0  0  0  0  0  0  0
  -18.6119  -23.2531   24.4646 H   0  0  0  0  0  0  0  0  0  0  0  0
  -18.8631  -23.5233   27.3998 H   0  0  0  0  0  0  0  0  0  0  0  0
  -18.9732  -23.4150   27.2179 H   0  0  0  0  0  0  0  0  0  0  0  0
  -16.4570  -25.9075   27.0802 H   0  0  0  0  0  0  0  0  0  0  0  0
  1  2  1  0
  2  3  1  0
  3  4  1  0
  4  5  2  0
  5  6  1  0
  6  7  1  0
  7  8  2  0
  8  9  1  0
  9 10  2  0
 10 11  1  0
 11 12  1  0
 12 13  1  0
 13 14  1  0
 14 15  2  0
 15 16  1  0
 16 17  1  0
 17 18  2  0
 18 19  1  0
 19 20  2  0
 20 21  1  0
 21 22  1  0
 21 23  2  0
 20 24  1  0
 24 25  2  0
 11  3  2  0
 25 14  1  0
 10  6  1  0
 25 17  1  0
  1 26  1  0
  1 27  1  0
  2 28  1  0
  2 29  1  0
  4 30  1  0
  5 31  1  0
  7 32  1  0
  8 33  1  0
 12 34  1  0
 13 35  1  0
 13 36  1  0
 15 37  1  0
 16 38  1  0
 18 39  1  0
 19 40  1  0
 22 41  1  0
 22 42  1  0
 24 43  1  0
M  END
>  <Energy>  (968) 
239.65016718592136

>  <compound_id>  (968) 
2245

>  <target_id>  (968) 
1

>  <reference_id>  (968) 
62

>  <inspiration_ids>  (968) 
[42, 62]

>  <energy_score>  (968) 
158.1166610566347

>  <distance_score>  (968) 
3.630966275981404

>  <path>  (968) 
/opt/xchem-fragalysis-2/maxwin/BulkDock/SCRATCH/505732/C2245-P62/C2245-P62.minimised.mol

>  <scratch_subdir>  (968) 
/opt/xchem-fragalysis-2/maxwin/BulkDock/SCRATCH/505732/C2245-P62

>  <fragmenstein_runtime>  (968) 
13.011428594589233

>  <fragmenstein_outcome>  (968) 
too moved

>  <fragmenstein_mode>  (968) 
expansion

>  <fragmenstein_error>  (968) 


$$$$
C2247-P42
     RDKit          3D

 44 46  0  0  0  0  0  0  0  0999 V2000
   -9.7955  -26.3834   33.9990 C   0  0  0  0  0  0  0  0  0  0  0  0
  -10.5466  -26.4434   32.7037 C   0  0  0  0  0  0  0  0  0  0  0  0
  -10.4086  -27.4649   31.8458 N   0  0  0  0  0  0  0  0  0  0  0  0
  -11.2265  -27.2001   30.4380 S   0  0  0  0  0  0  0  0  0  0  0  0
  -11.4008  -25.4932   30.8018 C   0  0  0  0  0  0  0  0  0  0  0  0
  -10.9115  -24.5399   29.9531 N   0  0  0  0  0  0  0  0  0  0  0  0
  -11.6359  -23.9678   28.8348 C   0  0  0  0  0  0  0  0  0  0  0  0
  -11.6794  -24.7448   27.6094 N   0  0  0  0  0  0  0  0  0  0  0  0
  -12.9061  -24.8134   26.9083 C   0  0  0  0  0  0  0  0  0  0  0  0
  -13.2753  -23.9903   25.8777 C   0  0  0  0  0  0  0  0  0  0  0  0
  -12.4145  -22.8369   25.4229 C   0  0  0  0  0  0  0  0  0  0  0  0
  -13.0372  -21.8125   24.6074 N   0  0  0  0  0  0  0  0  0  0  0  0
  -14.5480  -24.1809   25.1682 C   0  0  0  0  0  0  0  0  0  0  0  0
  -15.4047  -25.1271   25.5638 C   0  0  0  0  0  0  0  0  0  0  0  0
  -15.0600  -25.9213   26.6371 N   0  0  0  0  0  0  0  0  0  0  0  0
  -15.7866  -26.9169   27.2316 C   0  0  0  0  0  0  0  0  0  0  0  0
  -14.9859  -27.4077   28.2292 C   0  0  0  0  0  0  0  0  0  0  0  0
  -13.8174  -26.6933   28.3135 N   0  0  0  0  0  0  0  0  0  0  0  0
  -13.8588  -25.8191   27.3233 C   0  0  0  0  0  0  0  0  0  0  0  0
   -9.5198  -24.9256   29.7408 C   0  0  0  0  0  0  0  0  0  0  0  0
   -8.8376  -25.0186   31.2487 C   0  0  0  0  0  0  0  0  0  0  0  0
   -9.3030  -23.9740   32.1213 N   0  0  0  0  0  0  0  0  0  0  0  0
   -8.0525  -25.8847   31.4393 O   0  0  0  0  0  0  0  0  0  0  0  0
  -11.3489  -25.3913   32.2156 C   0  0  0  0  0  0  0  0  0  0  0  0
  -11.6640  -24.1958   32.9899 C   0  0  0  0  0  0  0  0  0  0  0  0
  -11.9157  -23.1623   33.4593 N   0  0  0  0  0  0  0  0  0  0  0  0
   -9.9914  -27.2479   34.6211 H   0  0  0  0  0  0  0  0  0  0  0  0
   -8.7173  -26.3292   33.8366 H   0  0  0  0  0  0  0  0  0  0  0  0
  -10.0750  -25.5182   34.5958 H   0  0  0  0  0  0  0  0  0  0  0  0
  -12.6427  -23.7000   29.1206 H   0  0  0  0  0  0  0  0  0  0  0  0
  -11.1667  -23.0035   28.5983 H   0  0  0  0  0  0  0  0  0  0  0  0
  -10.9493  -24.4045   26.9907 H   0  0  0  0  0  0  0  0  0  0  0  0
  -12.0109  -22.3287   26.3051 H   0  0  0  0  0  0  0  0  0  0  0  0
  -11.5688  -23.2446   24.8590 H   0  0  0  0  0  0  0  0  0  0  0  0
  -13.2430  -22.1599   23.6768 H   0  0  0  0  0  0  0  0  0  0  0  0
  -13.8671  -21.4161   25.0416 H   0  0  0  0  0  0  0  0  0  0  0  0
  -14.7888  -23.5689   24.3115 H   0  0  0  0  0  0  0  0  0  0  0  0
  -16.3541  -25.3195   25.0814 H   0  0  0  0  0  0  0  0  0  0  0  0
  -16.7669  -27.2038   26.8809 H   0  0  0  0  0  0  0  0  0  0  0  0
  -15.2004  -28.2242   28.9067 H   0  0  0  0  0  0  0  0  0  0  0  0
   -9.4088  -25.8861   29.2273 H   0  0  0  0  0  0  0  0  0  0  0  0
   -9.0893  -24.2405   29.0307 H   0  0  0  0  0  0  0  0  0  0  0  0
  -10.0828  -23.4633   31.6535 H   0  0  0  0  0  0  0  0  0  0  0  0
   -9.9053  -23.3271   31.5820 H   0  0  0  0  0  0  0  0  0  0  0  0
  1  2  1  0
  2  3  2  0
  3  4  1  0
  4  5  1  0
  5  6  1  0
  6  7  1  0
  7  8  1  0
  8  9  1  0
  9 10  2  0
 10 11  1  0
 11 12  1  0
 10 13  1  0
 13 14  2  0
 14 15  1  0
 15 16  1  0
 16 17  2  0
 17 18  1  0
 18 19  2  0
  6 20  1  0
 20 21  1  0
 21 22  1  0
 21 23  2  0
  5 24  2  0
 24 25  1  0
 25 26  3  0
 24  2  1  0
 19  9  1  0
 19 15  1  0
  1 27  1  0
  1 28  1  0
  1 29  1  0
  7 30  1  0
  7 31  1  0
  8 32  1  0
 11 33  1  0
 11 34  1  0
 12 35  1  0
 12 36  1  0
 13 37  1  0
 14 38  1  0
 16 39  1  0
 17 40  1  0
 20 41  1  0
 20 42  1  0
 22 43  1  0
 22 44  1  0
M  END
>  <Energy>  (969) 
310.41374203971128

>  <compound_id>  (969) 
2247

>  <target_id>  (969) 
1

>  <reference_id>  (969) 
42

>  <inspiration_ids>  (969) 
[42, 82]

>  <energy_score>  (969) 
191.06703706717252

>  <distance_score>  (969) 
3.106155676582871

>  <path>  (969) 
/opt/xchem-fragalysis-2/maxwin/BulkDock/SCRATCH/505732/C2247-P42/C2247-P42.minimised.mol

>  <scratch_subdir>  (969) 
/opt/xchem-fragalysis-2/maxwin/BulkDock/SCRATCH/505732/C2247-P42

>  <fragmenstein_runtime>  (969) 
9.298788070678711

>  <fragmenstein_outcome>  (969) 
too moved

>  <fragmenstein_mode>  (969) 
expansion

>  <fragmenstein_error>  (969) 


$$$$
C2247-P82
     RDKit          3D

 44 46  0  0  0  0  0  0  0  0999 V2000
  -10.7691  -25.2631   33.4055 C   0  0  0  0  0  0  0  0  0  0  0  0
  -11.6015  -24.3448   32.6193 C   0  0  0  0  0  0  0  0  0  0  0  0
  -12.9211  -24.2837   32.7910 N   0  0  0  0  0  0  0  0  0  0  0  0
  -13.4917  -23.5607   31.3529 S   0  0  0  0  0  0  0  0  0  0  0  0
  -11.9003  -23.6148   30.5517 C   0  0  0  0  0  0  0  0  0  0  0  0
  -11.5609  -24.2504   29.3500 N   0  0  0  0  0  0  0  0  0  0  0  0
  -11.4339  -23.4734   28.0858 C   0  0  0  0  0  0  0  0  0  0  0  0
  -12.6240  -23.5153   27.2453 N   0  0  0  0  0  0  0  0  0  0  0  0
  -12.9583  -24.4503   26.2303 C   0  0  0  0  0  0  0  0  0  0  0  0
  -13.9450  -24.2722   25.2809 C   0  0  0  0  0  0  0  0  0  0  0  0
  -14.0058  -23.1252   24.2755 C   0  0  0  0  0  0  0  0  0  0  0  0
  -15.3116  -22.4797   24.0147 N   0  0  0  0  0  0  0  0  0  0  0  0
  -14.7747  -25.4153   24.8524 C   0  0  0  0  0  0  0  0  0  0  0  0
  -14.3342  -26.6567   25.0662 C   0  0  0  0  0  0  0  0  0  0  0  0
  -13.0889  -26.7988   25.6396 N   0  0  0  0  0  0  0  0  0  0  0  0
  -12.3084  -27.9136   25.6557 C   0  0  0  0  0  0  0  0  0  0  0  0
  -11.0574  -27.4435   25.9495 C   0  0  0  0  0  0  0  0  0  0  0  0
  -11.0869  -26.1331   26.3447 N   0  0  0  0  0  0  0  0  0  0  0  0
  -12.3387  -25.7531   26.1650 C   0  0  0  0  0  0  0  0  0  0  0  0
  -10.5213  -25.3178   29.4468 C   0  0  0  0  0  0  0  0  0  0  0  0
  -11.1291  -26.7252   29.7099 C   0  0  0  0  0  0  0  0  0  0  0  0
  -10.4599  -27.4080   30.8109 N   0  0  0  0  0  0  0  0  0  0  0  0
  -12.0323  -27.0828   29.0048 O   0  0  0  0  0  0  0  0  0  0  0  0
  -11.1989  -23.3224   31.7298 C   0  0  0  0  0  0  0  0  0  0  0  0
  -11.2534  -21.9536   32.2121 C   0  0  0  0  0  0  0  0  0  0  0  0
  -11.3518  -20.8659   32.5966 N   0  0  0  0  0  0  0  0  0  0  0  0
   -9.7054  -25.0430   33.2748 H   0  0  0  0  0  0  0  0  0  0  0  0
  -11.0251  -25.2346   34.4641 H   0  0  0  0  0  0  0  0  0  0  0  0
  -10.9134  -26.2852   33.0668 H   0  0  0  0  0  0  0  0  0  0  0  0
  -10.5593  -23.7686   27.4980 H   0  0  0  0  0  0  0  0  0  0  0  0
  -11.2593  -22.4218   28.3461 H   0  0  0  0  0  0  0  0  0  0  0  0
  -13.3177  -23.6628   27.9830 H   0  0  0  0  0  0  0  0  0  0  0  0
  -13.1871  -22.4134   24.4087 H   0  0  0  0  0  0  0  0  0  0  0  0
  -13.7602  -23.5451   23.3014 H   0  0  0  0  0  0  0  0  0  0  0  0
  -16.0261  -22.9581   24.5629 H   0  0  0  0  0  0  0  0  0  0  0  0
  -15.2243  -21.5704   24.4989 H   0  0  0  0  0  0  0  0  0  0  0  0
  -15.7271  -25.2428   24.3663 H   0  0  0  0  0  0  0  0  0  0  0  0
  -14.8547  -27.5456   24.7338 H   0  0  0  0  0  0  0  0  0  0  0  0
  -12.6790  -28.8752   25.3342 H   0  0  0  0  0  0  0  0  0  0  0  0
  -10.1302  -27.9917   25.8821 H   0  0  0  0  0  0  0  0  0  0  0  0
   -9.7764  -25.0492   30.2011 H   0  0  0  0  0  0  0  0  0  0  0  0
   -9.9492  -25.4249   28.5194 H   0  0  0  0  0  0  0  0  0  0  0  0
   -9.8022  -26.7515   31.2663 H   0  0  0  0  0  0  0  0  0  0  0  0
   -9.6456  -26.8443   31.1141 H   0  0  0  0  0  0  0  0  0  0  0  0
  1  2  1  0
  2  3  2  0
  3  4  1  0
  4  5  1  0
  5  6  1  0
  6  7  1  0
  7  8  1  0
  8  9  1  0
  9 10  2  0
 10 11  1  0
 11 12  1  0
 10 13  1  0
 13 14  2  0
 14 15  1  0
 15 16  1  0
 16 17  2  0
 17 18  1  0
 18 19  2  0
  6 20  1  0
 20 21  1  0
 21 22  1  0
 21 23  2  0
  5 24  2  0
 24 25  1  0
 25 26  3  0
 24  2  1  0
 19  9  1  0
 19 15  1  0
  1 27  1  0
  1 28  1  0
  1 29  1  0
  7 30  1  0
  7 31  1  0
  8 32  1  0
 11 33  1  0
 11 34  1  0
 12 35  1  0
 12 36  1  0
 13 37  1  0
 14 38  1  0
 16 39  1  0
 17 40  1  0
 20 41  1  0
 20 42  1  0
 22 43  1  0
 22 44  1  0
M  END
>  <Energy>  (970) 
344.53250271475792

>  <compound_id>  (970) 
2247

>  <target_id>  (970) 
1

>  <reference_id>  (970) 
82

>  <inspiration_ids>  (970) 
[42, 82]

>  <energy_score>  (970) 
225.18579774221848

>  <distance_score>  (970) 
2.338707544351525

>  <path>  (970) 
/opt/xchem-fragalysis-2/maxwin/BulkDock/SCRATCH/505732/C2247-P82/C2247-P82.minimised.mol

>  <scratch_subdir>  (970) 
/opt/xchem-fragalysis-2/maxwin/BulkDock/SCRATCH/505732/C2247-P82

>  <fragmenstein_runtime>  (970) 
8.348023176193237

>  <fragmenstein_outcome>  (970) 
too moved

>  <fragmenstein_mode>  (970) 
expansion

>  <fragmenstein_error>  (970) 


$$$$
C2248-P42
     RDKit          3D

 47 50  0  0  0  0  0  0  0  0999 V2000
  -15.8006  -22.0866   24.2572 N   0  0  0  0  0  0  0  0  0  0  0  0
  -14.3924  -22.4566   24.5081 C   0  0  0  0  0  0  0  0  0  0  0  0
  -14.1040  -23.6623   25.3820 C   0  0  0  0  0  0  0  0  0  0  0  0
  -15.1062  -24.7309   25.4259 C   0  0  0  0  0  0  0  0  0  0  0  0
  -14.8883  -25.8107   26.1913 C   0  0  0  0  0  0  0  0  0  0  0  0
  -13.6688  -25.9547   26.8297 N   0  0  0  0  0  0  0  0  0  0  0  0
  -13.1881  -26.9683   27.6186 C   0  0  0  0  0  0  0  0  0  0  0  0
  -11.8548  -26.7060   27.8045 C   0  0  0  0  0  0  0  0  0  0  0  0
  -11.5336  -25.5008   27.2535 N   0  0  0  0  0  0  0  0  0  0  0  0
  -12.6599  -25.0325   26.7396 C   0  0  0  0  0  0  0  0  0  0  0  0
  -12.9587  -23.7823   26.1176 C   0  0  0  0  0  0  0  0  0  0  0  0
  -11.9732  -22.8460   26.2493 N   0  0  0  0  0  0  0  0  0  0  0  0
  -11.6618  -22.1372   27.4785 C   0  0  0  0  0  0  0  0  0  0  0  0
  -11.6974  -22.5901   28.9256 C   0  0  0  0  0  0  0  0  0  0  0  0
  -11.1204  -23.8739   29.5347 C   0  0  0  0  0  0  0  0  0  0  0  0
  -11.1230  -23.7762   31.0053 N   0  0  0  0  0  0  0  0  0  0  0  0
  -10.5790  -24.6722   31.8709 C   0  0  0  0  0  0  0  0  0  0  0  0
  -11.1674  -24.7357   33.0719 N   0  0  0  0  0  0  0  0  0  0  0  0
  -10.6002  -25.4092   34.0562 C   0  0  0  0  0  0  0  0  0  0  0  0
   -9.3712  -25.9711   33.9488 C   0  0  0  0  0  0  0  0  0  0  0  0
   -8.8147  -26.0104   32.6848 C   0  0  0  0  0  0  0  0  0  0  0  0
   -9.4436  -25.3909   31.6278 C   0  0  0  0  0  0  0  0  0  0  0  0
   -8.8995  -25.4080   30.4115 F   0  0  0  0  0  0  0  0  0  0  0  0
  -11.6446  -22.5988   31.7117 C   0  0  0  0  0  0  0  0  0  0  0  0
  -11.0657  -21.4390   31.0599 C   0  0  0  0  0  0  0  0  0  0  0  0
  -10.4249  -20.6409   31.7182 O   0  0  0  0  0  0  0  0  0  0  0  0
  -11.2760  -21.3864   29.7037 N   0  0  0  0  0  0  0  0  0  0  0  0
  -16.3606  -22.4262   25.0419 H   0  0  0  0  0  0  0  0  0  0  0  0
  -15.8444  -21.0662   24.3963 H   0  0  0  0  0  0  0  0  0  0  0  0
  -13.8938  -21.5764   24.9238 H   0  0  0  0  0  0  0  0  0  0  0  0
  -13.9154  -22.6456   23.5417 H   0  0  0  0  0  0  0  0  0  0  0  0
  -16.0260  -24.6469   24.8591 H   0  0  0  0  0  0  0  0  0  0  0  0
  -15.5990  -26.6223   26.2814 H   0  0  0  0  0  0  0  0  0  0  0  0
  -13.8055  -27.8015   27.9173 H   0  0  0  0  0  0  0  0  0  0  0  0
  -11.1191  -27.2977   28.3347 H   0  0  0  0  0  0  0  0  0  0  0  0
  -11.9600  -22.1938   25.4685 H   0  0  0  0  0  0  0  0  0  0  0  0
  -12.3675  -21.3068   27.4462 H   0  0  0  0  0  0  0  0  0  0  0  0
  -10.6947  -21.6883   27.3504 H   0  0  0  0  0  0  0  0  0  0  0  0
  -12.7298  -22.7729   29.1036 H   0  0  0  0  0  0  0  0  0  0  0  0
  -10.1492  -24.1162   29.0974 H   0  0  0  0  0  0  0  0  0  0  0  0
  -11.7971  -24.6962   29.3316 H   0  0  0  0  0  0  0  0  0  0  0  0
  -11.1687  -25.4007   34.9651 H   0  0  0  0  0  0  0  0  0  0  0  0
   -8.8830  -26.4184   34.8015 H   0  0  0  0  0  0  0  0  0  0  0  0
   -7.8832  -26.5272   32.5264 H   0  0  0  0  0  0  0  0  0  0  0  0
  -12.6979  -22.3382   31.6587 H   0  0  0  0  0  0  0  0  0  0  0  0
  -11.3803  -22.5350   32.7715 H   0  0  0  0  0  0  0  0  0  0  0  0
  -10.8109  -20.6448   29.1937 H   0  0  0  0  0  0  0  0  0  0  0  0
  1  2  1  0
  2  3  1  0
  3  4  1  0
  4  5  2  0
  5  6  1  0
  6  7  1  0
  7  8  2  0
  8  9  1  0
  9 10  2  0
 10 11  1  0
 11 12  1  0
 12 13  1  0
 13 14  1  0
 14 15  1  0
 15 16  1  0
 16 17  1  0
 17 18  2  0
 18 19  1  0
 19 20  2  0
 20 21  1  0
 21 22  2  0
 22 23  1  0
 16 24  1  0
 24 25  1  0
 25 26  2  0
 25 27  1  0
 11  3  2  0
 27 14  1  0
 10  6  1  0
 22 17  1  0
  1 28  1  0
  1 29  1  0
  2 30  1  0
  2 31  1  0
  4 32  1  0
  5 33  1  0
  7 34  1  0
  8 35  1  0
 12 36  1  0
 13 37  1  0
 13 38  1  0
 14 39  1  0
 15 40  1  0
 15 41  1  0
 19 42  1  0
 20 43  1  0
 21 44  1  0
 24 45  1  0
 24 46  1  0
 27 47  1  0
M  END
>  <Energy>  (971) 
200.8363637411498

>  <compound_id>  (971) 
2248

>  <target_id>  (971) 
1

>  <reference_id>  (971) 
42

>  <inspiration_ids>  (971) 
[42, 88]

>  <energy_score>  (971) 
12.998697758292963

>  <distance_score>  (971) 
2.0791693523531842

>  <path>  (971) 
/opt/xchem-fragalysis-2/maxwin/BulkDock/SCRATCH/505732/C2248-P42/C2248-P42.minimised.mol

>  <scratch_subdir>  (971) 
/opt/xchem-fragalysis-2/maxwin/BulkDock/SCRATCH/505732/C2248-P42

>  <fragmenstein_runtime>  (971) 
8.886982917785645

>  <fragmenstein_outcome>  (971) 
too moved

>  <fragmenstein_mode>  (971) 
expansion

>  <fragmenstein_error>  (971) 


$$$$
C2248-P88
     RDKit          3D

 47 50  0  0  0  0  0  0  0  0999 V2000
  -15.2458  -22.0274   24.7730 N   0  0  0  0  0  0  0  0  0  0  0  0
  -13.8759  -22.5776   24.8485 C   0  0  0  0  0  0  0  0  0  0  0  0
  -13.6462  -23.8002   25.7277 C   0  0  0  0  0  0  0  0  0  0  0  0
  -14.6757  -24.8429   25.5869 C   0  0  0  0  0  0  0  0  0  0  0  0
  -14.4943  -26.0679   26.0843 C   0  0  0  0  0  0  0  0  0  0  0  0
  -13.3636  -26.3118   26.8241 N   0  0  0  0  0  0  0  0  0  0  0  0
  -13.0337  -27.4321   27.5334 C   0  0  0  0  0  0  0  0  0  0  0  0
  -11.9165  -27.1033   28.2528 C   0  0  0  0  0  0  0  0  0  0  0  0
  -11.5302  -25.8296   27.9732 N   0  0  0  0  0  0  0  0  0  0  0  0
  -12.4175  -25.3585   27.1102 C   0  0  0  0  0  0  0  0  0  0  0  0
  -12.5912  -24.0249   26.5786 C   0  0  0  0  0  0  0  0  0  0  0  0
  -11.7504  -23.0824   27.2016 N   0  0  0  0  0  0  0  0  0  0  0  0
  -12.1984  -22.8396   28.5891 C   0  0  0  0  0  0  0  0  0  0  0  0
  -11.4468  -23.0321   29.8808 C   0  0  0  0  0  0  0  0  0  0  0  0
  -10.6293  -24.3243   30.1475 C   0  0  0  0  0  0  0  0  0  0  0  0
   -9.6589  -24.2496   31.2878 N   0  0  0  0  0  0  0  0  0  0  0  0
  -10.1505  -24.0936   32.6116 C   0  0  0  0  0  0  0  0  0  0  0  0
  -11.2880  -23.3853   32.7252 N   0  0  0  0  0  0  0  0  0  0  0  0
  -11.4037  -22.4778   33.7234 C   0  0  0  0  0  0  0  0  0  0  0  0
  -10.4602  -22.3221   34.6929 C   0  0  0  0  0  0  0  0  0  0  0  0
   -9.3485  -23.1462   34.6440 C   0  0  0  0  0  0  0  0  0  0  0  0
   -9.2229  -24.1069   33.6553 C   0  0  0  0  0  0  0  0  0  0  0  0
   -8.0907  -24.8168   33.5668 F   0  0  0  0  0  0  0  0  0  0  0  0
   -8.9481  -22.9695   31.1552 C   0  0  0  0  0  0  0  0  0  0  0  0
   -9.9930  -21.7951   31.2852 C   0  0  0  0  0  0  0  0  0  0  0  0
  -10.0197  -20.8966   32.1220 O   0  0  0  0  0  0  0  0  0  0  0  0
  -10.8674  -21.7558   30.2424 N   0  0  0  0  0  0  0  0  0  0  0  0
  -15.7386  -22.2982   25.6247 H   0  0  0  0  0  0  0  0  0  0  0  0
  -15.1515  -21.0115   24.9100 H   0  0  0  0  0  0  0  0  0  0  0  0
  -13.1563  -21.7940   25.0686 H   0  0  0  0  0  0  0  0  0  0  0  0
  -13.6019  -22.8713   23.8303 H   0  0  0  0  0  0  0  0  0  0  0  0
  -15.6375  -24.6122   25.1591 H   0  0  0  0  0  0  0  0  0  0  0  0
  -15.2286  -26.8587   26.0051 H   0  0  0  0  0  0  0  0  0  0  0  0
  -13.6187  -28.3382   27.4811 H   0  0  0  0  0  0  0  0  0  0  0  0
  -11.3673  -27.7260   28.9466 H   0  0  0  0  0  0  0  0  0  0  0  0
  -11.7905  -22.1919   26.6945 H   0  0  0  0  0  0  0  0  0  0  0  0
  -13.1258  -23.4042   28.7611 H   0  0  0  0  0  0  0  0  0  0  0  0
  -12.4188  -21.7716   28.5841 H   0  0  0  0  0  0  0  0  0  0  0  0
  -12.2607  -23.0949   30.6139 H   0  0  0  0  0  0  0  0  0  0  0  0
  -10.0208  -24.5413   29.2632 H   0  0  0  0  0  0  0  0  0  0  0  0
  -11.3018  -25.1691   30.3257 H   0  0  0  0  0  0  0  0  0  0  0  0
  -12.2749  -21.8293   33.6851 H   0  0  0  0  0  0  0  0  0  0  0  0
  -10.6100  -21.5572   35.4385 H   0  0  0  0  0  0  0  0  0  0  0  0
   -8.5215  -22.9523   35.2967 H   0  0  0  0  0  0  0  0  0  0  0  0
   -8.1298  -22.8277   31.8691 H   0  0  0  0  0  0  0  0  0  0  0  0
   -8.4920  -22.9614   30.1592 H   0  0  0  0  0  0  0  0  0  0  0  0
  -11.5223  -21.0035   30.4111 H   0  0  0  0  0  0  0  0  0  0  0  0
  1  2  1  0
  2  3  1  0
  3  4  1  0
  4  5  2  0
  5  6  1  0
  6  7  1  0
  7  8  2  0
  8  9  1  0
  9 10  2  0
 10 11  1  0
 11 12  1  0
 12 13  1  0
 13 14  1  0
 14 15  1  0
 15 16  1  0
 16 17  1  0
 17 18  2  0
 18 19  1  0
 19 20  2  0
 20 21  1  0
 21 22  2  0
 22 23  1  0
 16 24  1  0
 24 25  1  0
 25 26  2  0
 25 27  1  0
 11  3  2  0
 27 14  1  0
 10  6  1  0
 22 17  1  0
  1 28  1  0
  1 29  1  0
  2 30  1  0
  2 31  1  0
  4 32  1  0
  5 33  1  0
  7 34  1  0
  8 35  1  0
 12 36  1  0
 13 37  1  0
 13 38  1  0
 14 39  1  0
 15 40  1  0
 15 41  1  0
 19 42  1  0
 20 43  1  0
 21 44  1  0
 24 45  1  0
 24 46  1  0
 27 47  1  0
M  END
>  <Energy>  (972) 
221.84772025973473

>  <compound_id>  (972) 
2248

>  <target_id>  (972) 
1

>  <reference_id>  (972) 
88

>  <inspiration_ids>  (972) 
[42, 88]

>  <energy_score>  (972) 
34.01005427688017

>  <distance_score>  (972) 
1.7491824231505075

>  <path>  (972) 
/opt/xchem-fragalysis-2/maxwin/BulkDock/SCRATCH/505732/C2248-P88/C2248-P88.minimised.mol

>  <scratch_subdir>  (972) 
/opt/xchem-fragalysis-2/maxwin/BulkDock/SCRATCH/505732/C2248-P88

>  <fragmenstein_runtime>  (972) 
6.687922239303589

>  <fragmenstein_outcome>  (972) 
too moved

>  <fragmenstein_mode>  (972) 
expansion

>  <fragmenstein_error>  (972) 


$$$$
C2250-P42
     RDKit          3D

 46 49  0  0  0  0  0  0  0  0999 V2000
  -17.0632  -22.7299   23.5387 N   0  0  0  0  0  0  0  0  0  0  0  0
  -16.0773  -22.0992   24.3979 C   0  0  0  0  0  0  0  0  0  0  0  0
  -14.8273  -22.9126   24.6824 C   0  0  0  0  0  0  0  0  0  0  0  0
  -13.7289  -22.1357   25.2778 C   0  0  0  0  0  0  0  0  0  0  0  0
  -13.2080  -22.6300   26.4104 C   0  0  0  0  0  0  0  0  0  0  0  0
  -13.4885  -23.9564   26.7001 N   0  0  0  0  0  0  0  0  0  0  0  0
  -13.3496  -24.7102   27.8303 C   0  0  0  0  0  0  0  0  0  0  0  0
  -13.4781  -26.0375   27.4683 C   0  0  0  0  0  0  0  0  0  0  0  0
  -13.2359  -25.9722   26.0693 C   0  0  0  0  0  0  0  0  0  0  0  0
  -11.9763  -26.5206   25.4400 C   0  0  0  0  0  0  0  0  0  0  0  0
  -10.9545  -27.0386   26.4764 C   0  0  0  0  0  0  0  0  0  0  0  0
  -10.4823  -25.9723   27.4629 C   0  0  0  0  0  0  0  0  0  0  0  0
  -10.3781  -26.3190   28.7744 N   0  0  0  0  0  0  0  0  0  0  0  0
  -10.3935  -25.2879   29.6318 C   0  0  0  0  0  0  0  0  0  0  0  0
  -10.2236  -25.4228   31.0656 C   0  0  0  0  0  0  0  0  0  0  0  0
  -10.9197  -24.5555   31.8982 C   0  0  0  0  0  0  0  0  0  0  0  0
  -10.9460  -24.7292   33.2613 C   0  0  0  0  0  0  0  0  0  0  0  0
   -9.9907  -25.5230   33.8515 C   0  0  0  0  0  0  0  0  0  0  0  0
   -9.0839  -26.1631   33.0518 C   0  0  0  0  0  0  0  0  0  0  0  0
   -9.3080  -26.2504   31.6805 C   0  0  0  0  0  0  0  0  0  0  0  0
  -10.5656  -24.0103   29.2719 N   0  0  0  0  0  0  0  0  0  0  0  0
  -10.4622  -23.6945   28.0007 C   0  0  0  0  0  0  0  0  0  0  0  0
  -10.3979  -24.6476   27.0439 C   0  0  0  0  0  0  0  0  0  0  0  0
  -10.3731  -24.2800   25.7440 O   0  0  0  0  0  0  0  0  0  0  0  0
  -13.9261  -24.8272   25.7222 C   0  0  0  0  0  0  0  0  0  0  0  0
  -14.7612  -24.2673   24.7207 C   0  0  0  0  0  0  0  0  0  0  0  0
  -17.7843  -22.0417   23.3013 H   0  0  0  0  0  0  0  0  0  0  0  0
  -17.5731  -23.4220   24.1008 H   0  0  0  0  0  0  0  0  0  0  0  0
  -16.6012  -21.8664   25.3268 H   0  0  0  0  0  0  0  0  0  0  0  0
  -15.8024  -21.1306   23.9819 H   0  0  0  0  0  0  0  0  0  0  0  0
  -13.5214  -21.1336   24.9301 H   0  0  0  0  0  0  0  0  0  0  0  0
  -12.5985  -22.0582   27.0956 H   0  0  0  0  0  0  0  0  0  0  0  0
  -13.0564  -24.2538   28.7569 H   0  0  0  0  0  0  0  0  0  0  0  0
  -13.2182  -26.8529   28.1333 H   0  0  0  0  0  0  0  0  0  0  0  0
  -12.1342  -27.2154   24.6250 H   0  0  0  0  0  0  0  0  0  0  0  0
  -11.5023  -25.7322   24.8813 H   0  0  0  0  0  0  0  0  0  0  0  0
  -11.4137  -27.8600   27.0382 H   0  0  0  0  0  0  0  0  0  0  0  0
  -10.1012  -27.4582   25.9428 H   0  0  0  0  0  0  0  0  0  0  0  0
  -11.5161  -23.7539   31.4784 H   0  0  0  0  0  0  0  0  0  0  0  0
  -11.6685  -24.1664   33.8471 H   0  0  0  0  0  0  0  0  0  0  0  0
   -9.8882  -25.5679   34.9256 H   0  0  0  0  0  0  0  0  0  0  0  0
   -8.2347  -26.6440   33.5242 H   0  0  0  0  0  0  0  0  0  0  0  0
   -8.7374  -26.9542   31.1019 H   0  0  0  0  0  0  0  0  0  0  0  0
  -10.5126  -22.6360   27.7973 H   0  0  0  0  0  0  0  0  0  0  0  0
  -11.0554  -23.6078   25.5766 H   0  0  0  0  0  0  0  0  0  0  0  0
  -15.5385  -24.9142   24.3292 H   0  0  0  0  0  0  0  0  0  0  0  0
  1  2  1  0
  2  3  1  0
  3  4  1  0
  4  5  2  0
  5  6  1  0
  6  7  1  0
  7  8  2  0
  8  9  1  0
  9 10  1  0
 10 11  1  0
 11 12  1  0
 12 13  2  0
 13 14  1  0
 14 15  1  0
 15 16  2  0
 16 17  1  0
 17 18  2  0
 18 19  1  0
 19 20  2  0
 14 21  2  0
 21 22  1  0
 22 23  2  0
 23 24  1  0
  9 25  2  0
 25 26  1  0
 26  3  2  0
 25  6  1  0
 23 12  1  0
 20 15  1  0
  1 27  1  0
  1 28  1  0
  2 29  1  0
  2 30  1  0
  4 31  1  0
  5 32  1  0
  7 33  1  0
  8 34  1  0
 10 35  1  0
 10 36  1  0
 11 37  1  0
 11 38  1  0
 16 39  1  0
 17 40  1  0
 18 41  1  0
 19 42  1  0
 20 43  1  0
 22 44  1  0
 24 45  1  0
 26 46  1  0
M  END
>  <Energy>  (973) 
176.85400629884919

>  <compound_id>  (973) 
2250

>  <target_id>  (973) 
1

>  <reference_id>  (973) 
42

>  <inspiration_ids>  (973) 
[42, 96]

>  <energy_score>  (973) 
80.79334468310981

>  <distance_score>  (973) 
2.2806907472822515

>  <path>  (973) 
/opt/xchem-fragalysis-2/maxwin/BulkDock/SCRATCH/505732/C2250-P42/C2250-P42.minimised.mol

>  <scratch_subdir>  (973) 
/opt/xchem-fragalysis-2/maxwin/BulkDock/SCRATCH/505732/C2250-P42

>  <fragmenstein_runtime>  (973) 
11.040303230285645

>  <fragmenstein_outcome>  (973) 
too moved

>  <fragmenstein_mode>  (973) 
expansion

>  <fragmenstein_error>  (973) 


$$$$
C2250-P96
     RDKit          3D

 46 49  0  0  0  0  0  0  0  0999 V2000
  -17.1869  -22.3568   24.0839 N   0  0  0  0  0  0  0  0  0  0  0  0
  -16.7324  -23.1769   25.2081 C   0  0  0  0  0  0  0  0  0  0  0  0
  -15.2278  -23.2645   25.3113 C   0  0  0  0  0  0  0  0  0  0  0  0
  -14.4591  -22.1713   24.7322 C   0  0  0  0  0  0  0  0  0  0  0  0
  -13.1305  -22.2591   24.6090 C   0  0  0  0  0  0  0  0  0  0  0  0
  -12.4927  -23.2338   25.3416 N   0  0  0  0  0  0  0  0  0  0  0  0
  -11.1460  -23.3771   25.5409 C   0  0  0  0  0  0  0  0  0  0  0  0
  -10.9382  -24.3713   26.4442 C   0  0  0  0  0  0  0  0  0  0  0  0
  -12.1827  -24.9965   26.6545 C   0  0  0  0  0  0  0  0  0  0  0  0
  -12.3269  -26.1871   27.4935 C   0  0  0  0  0  0  0  0  0  0  0  0
  -13.0554  -25.8804   28.7617 C   0  0  0  0  0  0  0  0  0  0  0  0
  -12.3194  -24.9653   29.6880 C   0  0  0  0  0  0  0  0  0  0  0  0
  -11.5806  -25.5645   30.6191 N   0  0  0  0  0  0  0  0  0  0  0  0
  -11.4708  -24.8244   31.7186 C   0  0  0  0  0  0  0  0  0  0  0  0
  -10.1262  -24.5802   32.1910 C   0  0  0  0  0  0  0  0  0  0  0  0
   -9.6990  -23.2500   32.2960 C   0  0  0  0  0  0  0  0  0  0  0  0
   -8.4977  -22.9686   32.8717 C   0  0  0  0  0  0  0  0  0  0  0  0
   -7.7146  -24.0172   33.3029 C   0  0  0  0  0  0  0  0  0  0  0  0
   -8.0887  -25.3393   33.1601 C   0  0  0  0  0  0  0  0  0  0  0  0
   -9.3033  -25.6224   32.5970 C   0  0  0  0  0  0  0  0  0  0  0  0
  -12.3441  -23.8703   32.1073 N   0  0  0  0  0  0  0  0  0  0  0  0
  -12.8472  -23.1849   31.0967 C   0  0  0  0  0  0  0  0  0  0  0  0
  -12.6669  -23.6362   29.8252 C   0  0  0  0  0  0  0  0  0  0  0  0
  -12.6316  -22.7062   28.8573 O   0  0  0  0  0  0  0  0  0  0  0  0
  -13.1535  -24.2609   26.0033 C   0  0  0  0  0  0  0  0  0  0  0  0
  -14.5770  -24.3075   25.8805 C   0  0  0  0  0  0  0  0  0  0  0  0
  -18.1691  -22.5687   23.8979 H   0  0  0  0  0  0  0  0  0  0  0  0
  -17.2078  -21.3831   24.4063 H   0  0  0  0  0  0  0  0  0  0  0  0
  -17.1782  -22.7938   26.1298 H   0  0  0  0  0  0  0  0  0  0  0  0
  -17.1408  -24.1868   25.0759 H   0  0  0  0  0  0  0  0  0  0  0  0
  -14.9605  -21.2474   24.4743 H   0  0  0  0  0  0  0  0  0  0  0  0
  -12.5078  -21.4823   24.1843 H   0  0  0  0  0  0  0  0  0  0  0  0
  -10.4573  -22.8148   24.9435 H   0  0  0  0  0  0  0  0  0  0  0  0
  -10.0004  -24.7036   26.8543 H   0  0  0  0  0  0  0  0  0  0  0  0
  -12.8789  -26.9570   26.9419 H   0  0  0  0  0  0  0  0  0  0  0  0
  -11.3447  -26.5981   27.7508 H   0  0  0  0  0  0  0  0  0  0  0  0
  -14.0529  -25.4808   28.5596 H   0  0  0  0  0  0  0  0  0  0  0  0
  -13.2396  -26.8246   29.2929 H   0  0  0  0  0  0  0  0  0  0  0  0
  -10.3195  -22.4219   31.9653 H   0  0  0  0  0  0  0  0  0  0  0  0
   -8.1691  -21.9457   32.9713 H   0  0  0  0  0  0  0  0  0  0  0  0
   -6.7431  -23.8194   33.7130 H   0  0  0  0  0  0  0  0  0  0  0  0
   -7.4106  -26.1333   33.4472 H   0  0  0  0  0  0  0  0  0  0  0  0
   -9.6435  -26.6460   32.5155 H   0  0  0  0  0  0  0  0  0  0  0  0
  -13.2608  -22.2103   31.3245 H   0  0  0  0  0  0  0  0  0  0  0  0
  -12.1113  -23.0241   28.0974 H   0  0  0  0  0  0  0  0  0  0  0  0
  -15.1181  -25.1447   26.3071 H   0  0  0  0  0  0  0  0  0  0  0  0
  1  2  1  0
  2  3  1  0
  3  4  1  0
  4  5  2  0
  5  6  1  0
  6  7  1  0
  7  8  2  0
  8  9  1  0
  9 10  1  0
 10 11  1  0
 11 12  1  0
 12 13  2  0
 13 14  1  0
 14 15  1  0
 15 16  2  0
 16 17  1  0
 17 18  2  0
 18 19  1  0
 19 20  2  0
 14 21  2  0
 21 22  1  0
 22 23  2  0
 23 24  1  0
  9 25  2  0
 25 26  1  0
 26  3  2  0
 25  6  1  0
 23 12  1  0
 20 15  1  0
  1 27  1  0
  1 28  1  0
  2 29  1  0
  2 30  1  0
  4 31  1  0
  5 32  1  0
  7 33  1  0
  8 34  1  0
 10 35  1  0
 10 36  1  0
 11 37  1  0
 11 38  1  0
 16 39  1  0
 17 40  1  0
 18 41  1  0
 19 42  1  0
 20 43  1  0
 22 44  1  0
 24 45  1  0
 26 46  1  0
M  END
>  <Energy>  (974) 
125.52278133423343

>  <compound_id>  (974) 
2250

>  <target_id>  (974) 
1

>  <reference_id>  (974) 
96

>  <inspiration_ids>  (974) 
[42, 96]

>  <energy_score>  (974) 
29.382794265967277

>  <distance_score>  (974) 
1.82485818268888

>  <path>  (974) 
/opt/xchem-fragalysis-2/maxwin/BulkDock/SCRATCH/505732/C2250-P96/C2250-P96.minimised.mol

>  <scratch_subdir>  (974) 
/opt/xchem-fragalysis-2/maxwin/BulkDock/SCRATCH/505732/C2250-P96

>  <fragmenstein_runtime>  (974) 
7.263371229171753

>  <fragmenstein_outcome>  (974) 
too moved

>  <fragmenstein_mode>  (974) 
expansion

>  <fragmenstein_error>  (974) 


$$$$
C2251-P42
     RDKit          3D

 44 46  0  0  0  0  0  0  0  0999 V2000
  -13.9206  -26.9591   28.3756 N   0  0  0  0  0  0  0  0  0  0  0  0
  -15.1387  -26.1521   28.1513 C   0  0  0  0  0  0  0  0  0  0  0  0
  -16.3586  -26.7845   27.4804 C   0  0  0  0  0  0  0  0  0  0  0  0
  -16.6054  -28.1869   27.8608 C   0  0  0  0  0  0  0  0  0  0  0  0
  -17.6941  -28.8272   27.4121 C   0  0  0  0  0  0  0  0  0  0  0  0
  -18.5812  -28.1468   26.5969 N   0  0  0  0  0  0  0  0  0  0  0  0
  -19.7478  -28.5834   26.0231 C   0  0  0  0  0  0  0  0  0  0  0  0
  -20.2369  -27.5085   25.3185 C   0  0  0  0  0  0  0  0  0  0  0  0
  -19.4063  -26.4237   25.4350 N   0  0  0  0  0  0  0  0  0  0  0  0
  -18.4158  -26.8261   26.2142 C   0  0  0  0  0  0  0  0  0  0  0  0
  -17.2508  -26.1031   26.6847 C   0  0  0  0  0  0  0  0  0  0  0  0
  -17.1616  -24.7347   26.2834 N   0  0  0  0  0  0  0  0  0  0  0  0
  -16.7116  -24.4496   24.9187 C   0  0  0  0  0  0  0  0  0  0  0  0
  -15.2218  -24.4839   24.9397 C   0  0  0  0  0  0  0  0  0  0  0  0
  -14.5100  -25.6653   25.1020 C   0  0  0  0  0  0  0  0  0  0  0  0
  -13.1951  -25.6634   25.5885 C   0  0  0  0  0  0  0  0  0  0  0  0
  -12.5479  -24.4748   25.8287 C   0  0  0  0  0  0  0  0  0  0  0  0
  -11.2784  -24.4432   26.3201 O   0  0  0  0  0  0  0  0  0  0  0  0
  -11.1440  -24.9289   27.6613 C   0  0  0  0  0  0  0  0  0  0  0  0
  -12.0529  -24.3617   28.4866 F   0  0  0  0  0  0  0  0  0  0  0  0
  -11.3998  -26.2600   27.6781 F   0  0  0  0  0  0  0  0  0  0  0  0
  -13.1944  -23.3434   25.3608 C   0  0  0  0  0  0  0  0  0  0  0  0
  -12.3577  -21.8679   25.1486 S   0  0  0  0  0  0  0  0  0  0  0  0
  -11.4096  -22.2337   23.8187 N   0  0  0  0  0  0  0  0  0  0  0  0
  -13.3195  -20.9508   24.6240 O   0  0  0  0  0  0  0  0  0  0  0  0
  -11.6881  -21.6553   26.3981 O   0  0  0  0  0  0  0  0  0  0  0  0
  -14.5267  -23.3144   24.9764 C   0  0  0  0  0  0  0  0  0  0  0  0
  -13.0975  -26.3606   28.2761 H   0  0  0  0  0  0  0  0  0  0  0  0
  -13.8358  -27.5834   27.5718 H   0  0  0  0  0  0  0  0  0  0  0  0
  -14.8547  -25.2314   27.6508 H   0  0  0  0  0  0  0  0  0  0  0  0
  -15.5567  -25.8861   29.1240 H   0  0  0  0  0  0  0  0  0  0  0  0
  -15.9106  -28.6831   28.5320 H   0  0  0  0  0  0  0  0  0  0  0  0
  -17.9294  -29.8519   27.6700 H   0  0  0  0  0  0  0  0  0  0  0  0
  -20.1214  -29.5867   26.1668 H   0  0  0  0  0  0  0  0  0  0  0  0
  -21.1468  -27.4597   24.7336 H   0  0  0  0  0  0  0  0  0  0  0  0
  -18.1309  -24.4004   26.3198 H   0  0  0  0  0  0  0  0  0  0  0  0
  -17.0846  -23.4621   24.6228 H   0  0  0  0  0  0  0  0  0  0  0  0
  -17.1102  -25.1732   24.1978 H   0  0  0  0  0  0  0  0  0  0  0  0
  -15.0440  -26.6010   24.9796 H   0  0  0  0  0  0  0  0  0  0  0  0
  -12.6831  -26.5944   25.7854 H   0  0  0  0  0  0  0  0  0  0  0  0
  -10.1341  -24.7404   28.0341 H   0  0  0  0  0  0  0  0  0  0  0  0
  -10.4023  -22.3163   23.9131 H   0  0  0  0  0  0  0  0  0  0  0  0
  -11.6590  -21.6557   23.0106 H   0  0  0  0  0  0  0  0  0  0  0  0
  -15.0379  -22.3802   24.7586 H   0  0  0  0  0  0  0  0  0  0  0  0
  1  2  1  0
  2  3  1  0
  3  4  1  0
  4  5  2  0
  5  6  1  0
  6  7  1  0
  7  8  2  0
  8  9  1  0
  9 10  2  0
 10 11  1  0
 11 12  1  0
 12 13  1  0
 13 14  1  0
 14 15  2  0
 15 16  1  0
 16 17  2  0
 17 18  1  0
 18 19  1  0
 19 20  1  0
 19 21  1  0
 17 22  1  0
 22 23  1  0
 23 24  1  0
 23 25  2  0
 23 26  2  0
 22 27  2  0
 11  3  2  0
 27 14  1  0
 10  6  1  0
  1 28  1  0
  1 29  1  0
  2 30  1  0
  2 31  1  0
  4 32  1  0
  5 33  1  0
  7 34  1  0
  8 35  1  0
 12 36  1  0
 13 37  1  0
 13 38  1  0
 15 39  1  0
 16 40  1  0
 19 41  1  0
 24 42  1  0
 24 43  1  0
 27 44  1  0
M  END
>  <Energy>  (975) 
12.022902580788035

>  <compound_id>  (975) 
2251

>  <target_id>  (975) 
1

>  <reference_id>  (975) 
42

>  <inspiration_ids>  (975) 
[42, 101]

>  <energy_score>  (975) 
-24.838215915269814

>  <distance_score>  (975) 
2.672199385169545

>  <path>  (975) 
/opt/xchem-fragalysis-2/maxwin/BulkDock/SCRATCH/505732/C2251-P42/C2251-P42.minimised.mol

>  <scratch_subdir>  (975) 
/opt/xchem-fragalysis-2/maxwin/BulkDock/SCRATCH/505732/C2251-P42

>  <fragmenstein_runtime>  (975) 
11.004739999771118

>  <fragmenstein_outcome>  (975) 
too moved

>  <fragmenstein_mode>  (975) 
expansion

>  <fragmenstein_error>  (975) 


$$$$
C2251-P101
     RDKit          3D

 44 46  0  0  0  0  0  0  0  0999 V2000
  -10.2394  -26.0536   29.5356 N   0  0  0  0  0  0  0  0  0  0  0  0
  -11.0281  -24.9979   28.8884 C   0  0  0  0  0  0  0  0  0  0  0  0
  -11.7894  -24.0721   29.7833 C   0  0  0  0  0  0  0  0  0  0  0  0
  -11.0199  -23.8910   31.0278 C   0  0  0  0  0  0  0  0  0  0  0  0
  -11.5435  -23.3265   32.1026 C   0  0  0  0  0  0  0  0  0  0  0  0
  -12.8017  -22.8211   32.0016 N   0  0  0  0  0  0  0  0  0  0  0  0
  -13.4936  -22.2140   33.0182 C   0  0  0  0  0  0  0  0  0  0  0  0
  -14.6492  -21.7756   32.4550 C   0  0  0  0  0  0  0  0  0  0  0  0
  -14.6228  -22.0317   31.1175 N   0  0  0  0  0  0  0  0  0  0  0  0
  -13.5846  -22.8232   30.8337 C   0  0  0  0  0  0  0  0  0  0  0  0
  -13.1155  -23.6690   29.6007 C   0  0  0  0  0  0  0  0  0  0  0  0
  -13.9235  -24.4970   28.4594 N   0  0  0  0  0  0  0  0  0  0  0  0
  -15.4049  -25.0114   27.8062 C   0  0  0  0  0  0  0  0  0  0  0  0
  -15.1127  -25.6226   26.4553 C   0  0  0  0  0  0  0  0  0  0  0  0
  -14.9228  -26.9781   26.3125 C   0  0  0  0  0  0  0  0  0  0  0  0
  -13.7951  -27.3443   25.6249 C   0  0  0  0  0  0  0  0  0  0  0  0
  -12.8903  -26.3419   25.2546 C   0  0  0  0  0  0  0  0  0  0  0  0
  -11.6089  -26.6922   24.9938 O   0  0  0  0  0  0  0  0  0  0  0  0
  -10.8860  -26.9134   26.1960 C   0  0  0  0  0  0  0  0  0  0  0  0
  -10.4633  -25.7262   26.6461 F   0  0  0  0  0  0  0  0  0  0  0  0
  -11.6311  -27.5152   27.1481 F   0  0  0  0  0  0  0  0  0  0  0  0
  -13.2985  -25.0193   25.2056 C   0  0  0  0  0  0  0  0  0  0  0  0
  -12.2239  -23.6245   25.2004 S   0  0  0  0  0  0  0  0  0  0  0  0
  -10.7657  -24.1576   24.6136 N   0  0  0  0  0  0  0  0  0  0  0  0
  -12.7144  -22.6881   24.2152 O   0  0  0  0  0  0  0  0  0  0  0  0
  -11.9427  -23.3669   26.5887 O   0  0  0  0  0  0  0  0  0  0  0  0
  -14.5799  -24.7157   25.5494 C   0  0  0  0  0  0  0  0  0  0  0  0
   -9.9814  -26.7553   28.8528 H   0  0  0  0  0  0  0  0  0  0  0  0
  -10.8769  -26.5303   30.1804 H   0  0  0  0  0  0  0  0  0  0  0  0
  -11.7299  -25.5102   28.2437 H   0  0  0  0  0  0  0  0  0  0  0  0
  -10.3363  -24.3871   28.3000 H   0  0  0  0  0  0  0  0  0  0  0  0
  -10.0395  -24.3481   31.1334 H   0  0  0  0  0  0  0  0  0  0  0  0
  -11.0309  -23.2718   33.0492 H   0  0  0  0  0  0  0  0  0  0  0  0
  -13.0992  -22.1592   34.0177 H   0  0  0  0  0  0  0  0  0  0  0  0
  -15.4737  -21.2527   32.9189 H   0  0  0  0  0  0  0  0  0  0  0  0
  -13.2365  -24.4867   27.7027 H   0  0  0  0  0  0  0  0  0  0  0  0
  -16.1404  -24.3473   27.3816 H   0  0  0  0  0  0  0  0  0  0  0  0
  -16.0154  -25.6175   28.4964 H   0  0  0  0  0  0  0  0  0  0  0  0
  -15.4633  -27.7101   26.9050 H   0  0  0  0  0  0  0  0  0  0  0  0
  -13.5295  -28.3947   25.6050 H   0  0  0  0  0  0  0  0  0  0  0  0
  -10.0199  -27.5249   25.9551 H   0  0  0  0  0  0  0  0  0  0  0  0
  -10.1655  -24.2143   25.4336 H   0  0  0  0  0  0  0  0  0  0  0  0
  -10.4212  -23.5077   23.8978 H   0  0  0  0  0  0  0  0  0  0  0  0
  -14.8673  -23.6649   25.5694 H   0  0  0  0  0  0  0  0  0  0  0  0
  1  2  1  0
  2  3  1  0
  3  4  1  0
  4  5  2  0
  5  6  1  0
  6  7  1  0
  7  8  2  0
  8  9  1  0
  9 10  2  0
 10 11  1  0
 11 12  1  0
 12 13  1  0
 13 14  1  0
 14 15  2  0
 15 16  1  0
 16 17  2  0
 17 18  1  0
 18 19  1  0
 19 20  1  0
 19 21  1  0
 17 22  1  0
 22 23  1  0
 23 24  1  0
 23 25  2  0
 23 26  2  0
 22 27  2  0
 11  3  2  0
 27 14  1  0
 10  6  1  0
  1 28  1  0
  1 29  1  0
  2 30  1  0
  2 31  1  0
  4 32  1  0
  5 33  1  0
  7 34  1  0
  8 35  1  0
 12 36  1  0
 13 37  1  0
 13 38  1  0
 15 39  1  0
 16 40  1  0
 19 41  1  0
 24 42  1  0
 24 43  1  0
 27 44  1  0
M  END
>  <Energy>  (976) 
138.08033634090577

>  <compound_id>  (976) 
2251

>  <target_id>  (976) 
1

>  <reference_id>  (976) 
101

>  <inspiration_ids>  (976) 
[42, 101]

>  <energy_score>  (976) 
88.47959844903664

>  <distance_score>  (976) 
2.9874028681712668

>  <path>  (976) 
/opt/xchem-fragalysis-2/maxwin/BulkDock/SCRATCH/505732/C2251-P101/C2251-P101.minimised.mol

>  <scratch_subdir>  (976) 
/opt/xchem-fragalysis-2/maxwin/BulkDock/SCRATCH/505732/C2251-P101

>  <fragmenstein_runtime>  (976) 
12.064144134521484

>  <fragmenstein_outcome>  (976) 
too moved

>  <fragmenstein_mode>  (976) 
expansion

>  <fragmenstein_error>  (976) 


$$$$
C799-P42
     RDKit          3D

 47 50  0  0  0  0  0  0  0  0999 V2000
  -11.9003  -26.7311   25.8645 N   0  0  0  0  0  0  0  0  0  0  0  0
  -12.3920  -25.4183   26.7928 S   0  0  0  0  0  0  0  0  0  0  0  0
  -11.4628  -24.4192   26.3299 O   0  0  0  0  0  0  0  0  0  0  0  0
  -12.5588  -25.9735   28.2145 N   0  0  0  0  0  0  0  0  0  0  0  0
  -11.4994  -26.7844   28.8458 C   0  0  0  0  0  0  0  0  0  0  0  0
  -10.2393  -26.0183   29.2238 C   0  0  0  0  0  0  0  0  0  0  0  0
  -10.0658  -25.7764   30.7360 C   0  0  0  0  0  0  0  0  0  0  0  0
  -10.7790  -24.5811   31.1092 N   0  0  0  0  0  0  0  0  0  0  0  0
  -10.5183  -24.0341   32.4306 C   0  0  0  0  0  0  0  0  0  0  0  0
  -10.9184  -22.5574   32.5925 C   0  0  0  0  0  0  0  0  0  0  0  0
  -12.2918  -22.2591   32.9305 C   0  0  0  0  0  0  0  0  0  0  0  0
  -12.9571  -21.9690   31.7966 C   0  0  0  0  0  0  0  0  0  0  0  0
  -12.2056  -22.0417   30.5504 N   0  0  0  0  0  0  0  0  0  0  0  0
  -12.2034  -22.6730   29.2979 C   0  0  0  0  0  0  0  0  0  0  0  0
  -11.2934  -22.0008   28.5495 C   0  0  0  0  0  0  0  0  0  0  0  0
  -10.5719  -21.2090   29.3723 N   0  0  0  0  0  0  0  0  0  0  0  0
  -10.9811  -21.5105   30.5664 C   0  0  0  0  0  0  0  0  0  0  0  0
  -10.4550  -21.4947   31.8672 C   0  0  0  0  0  0  0  0  0  0  0  0
  -14.0177  -24.9833   26.2150 C   0  0  0  0  0  0  0  0  0  0  0  0
  -15.0741  -25.8388   26.5294 C   0  0  0  0  0  0  0  0  0  0  0  0
  -16.3750  -25.5321   26.1307 C   0  0  0  0  0  0  0  0  0  0  0  0
  -16.6222  -24.3427   25.4247 C   0  0  0  0  0  0  0  0  0  0  0  0
  -17.8684  -23.8945   25.0182 N   0  0  0  0  0  0  0  0  0  0  0  0
  -17.7597  -22.7174   24.4537 C   0  0  0  0  0  0  0  0  0  0  0  0
  -16.1695  -22.1282   24.2772 S   0  0  0  0  0  0  0  0  0  0  0  0
  -15.5458  -23.5108   25.1040 C   0  0  0  0  0  0  0  0  0  0  0  0
  -14.2201  -23.8109   25.4771 C   0  0  0  0  0  0  0  0  0  0  0  0
  -10.9865  -26.4437   25.5328 H   0  0  0  0  0  0  0  0  0  0  0  0
  -12.4841  -26.7000   25.0311 H   0  0  0  0  0  0  0  0  0  0  0  0
  -11.2372  -27.6043   28.1708 H   0  0  0  0  0  0  0  0  0  0  0  0
  -11.9181  -27.2824   29.7255 H   0  0  0  0  0  0  0  0  0  0  0  0
   -9.4093  -26.6462   28.8929 H   0  0  0  0  0  0  0  0  0  0  0  0
  -10.1283  -25.0804   28.6675 H   0  0  0  0  0  0  0  0  0  0  0  0
   -9.0014  -25.6285   30.9397 H   0  0  0  0  0  0  0  0  0  0  0  0
  -10.3938  -26.6416   31.3214 H   0  0  0  0  0  0  0  0  0  0  0  0
  -11.7878  -24.7090   31.0279 H   0  0  0  0  0  0  0  0  0  0  0  0
  -11.0277  -24.6477   33.1833 H   0  0  0  0  0  0  0  0  0  0  0  0
   -9.4490  -24.1011   32.6485 H   0  0  0  0  0  0  0  0  0  0  0  0
  -12.7287  -22.3994   33.9050 H   0  0  0  0  0  0  0  0  0  0  0  0
  -14.0384  -21.8873   31.7942 H   0  0  0  0  0  0  0  0  0  0  0  0
  -12.8517  -23.4666   28.9920 H   0  0  0  0  0  0  0  0  0  0  0  0
  -11.0977  -22.0870   27.4945 H   0  0  0  0  0  0  0  0  0  0  0  0
  -10.6201  -20.4895   32.2518 H   0  0  0  0  0  0  0  0  0  0  0  0
  -14.8972  -26.7494   27.0980 H   0  0  0  0  0  0  0  0  0  0  0  0
  -17.2012  -26.1891   26.3847 H   0  0  0  0  0  0  0  0  0  0  0  0
  -18.6213  -22.1658   24.0978 H   0  0  0  0  0  0  0  0  0  0  0  0
  -13.4036  -23.1345   25.2385 H   0  0  0  0  0  0  0  0  0  0  0  0
  1  2  1  0
  2  3  2  0
  2  4  2  0
  4  5  1  0
  5  6  1  0
  6  7  1  0
  7  8  1  0
  8  9  1  0
  9 10  1  0
 10 11  1  0
 11 12  2  0
 12 13  1  0
 13 14  1  0
 14 15  2  0
 15 16  1  0
 16 17  2  0
 17 18  1  0
  2 19  1  0
 19 20  2  0
 20 21  1  0
 21 22  2  0
 22 23  1  0
 23 24  2  0
 24 25  1  0
 25 26  1  0
 26 27  2  0
 18 10  2  0
 27 19  1  0
 17 13  1  0
 26 22  1  0
  1 28  1  0
  1 29  1  0
  5 30  1  0
  5 31  1  0
  6 32  1  0
  6 33  1  0
  7 34  1  0
  7 35  1  0
  8 36  1  0
  9 37  1  0
  9 38  1  0
 11 39  1  0
 12 40  1  0
 14 41  1  0
 15 42  1  0
 18 43  1  0
 20 44  1  0
 21 45  1  0
 24 46  1  0
 27 47  1  0
M  END
>  <Energy>  (977) 
41.614278655276003

>  <compound_id>  (977) 
799

>  <target_id>  (977) 
1

>  <reference_id>  (977) 
42

>  <inspiration_ids>  (977) 
[42, 107]

>  <energy_score>  (977) 
11.149753403858028

>  <distance_score>  (977) 
1.942864820935181

>  <path>  (977) 
/opt/xchem-fragalysis-2/maxwin/BulkDock/SCRATCH/505732/C799-P42/C799-P42.minimised.mol

>  <scratch_subdir>  (977) 
/opt/xchem-fragalysis-2/maxwin/BulkDock/SCRATCH/505732/C799-P42

>  <fragmenstein_runtime>  (977) 
8.674359321594238

>  <fragmenstein_outcome>  (977) 
too moved

>  <fragmenstein_mode>  (977) 
expansion

>  <fragmenstein_error>  (977) 


$$$$
C799-P107
     RDKit          3D

 47 50  0  0  0  0  0  0  0  0999 V2000
  -11.0308  -26.6666   25.6251 N   0  0  0  0  0  0  0  0  0  0  0  0
  -11.6524  -25.5698   26.7284 S   0  0  0  0  0  0  0  0  0  0  0  0
  -10.7500  -24.4542   26.6528 O   0  0  0  0  0  0  0  0  0  0  0  0
  -11.8423  -26.5454   27.8844 N   0  0  0  0  0  0  0  0  0  0  0  0
  -11.5949  -26.1508   29.2783 C   0  0  0  0  0  0  0  0  0  0  0  0
  -10.1333  -26.1670   29.6551 C   0  0  0  0  0  0  0  0  0  0  0  0
   -9.9707  -26.1097   31.1773 C   0  0  0  0  0  0  0  0  0  0  0  0
  -10.1448  -24.7508   31.6602 N   0  0  0  0  0  0  0  0  0  0  0  0
  -11.0709  -24.5887   32.7756 C   0  0  0  0  0  0  0  0  0  0  0  0
  -11.5051  -23.1141   32.9581 C   0  0  0  0  0  0  0  0  0  0  0  0
  -12.9657  -23.0460   33.1162 C   0  0  0  0  0  0  0  0  0  0  0  0
  -13.6205  -22.9361   31.9463 C   0  0  0  0  0  0  0  0  0  0  0  0
  -12.8624  -22.7770   30.7857 N   0  0  0  0  0  0  0  0  0  0  0  0
  -13.0711  -23.1030   29.4793 C   0  0  0  0  0  0  0  0  0  0  0  0
  -12.0472  -22.4984   28.7800 C   0  0  0  0  0  0  0  0  0  0  0  0
  -11.1968  -21.8581   29.6305 N   0  0  0  0  0  0  0  0  0  0  0  0
  -11.5962  -22.2297   30.8220 C   0  0  0  0  0  0  0  0  0  0  0  0
  -11.0642  -22.1097   32.1432 C   0  0  0  0  0  0  0  0  0  0  0  0
  -13.2274  -25.1278   26.0416 C   0  0  0  0  0  0  0  0  0  0  0  0
  -14.3064  -25.9797   26.2704 C   0  0  0  0  0  0  0  0  0  0  0  0
  -15.5661  -25.6967   25.7420 C   0  0  0  0  0  0  0  0  0  0  0  0
  -15.7676  -24.5108   25.0200 C   0  0  0  0  0  0  0  0  0  0  0  0
  -17.0066  -24.0250   24.6118 N   0  0  0  0  0  0  0  0  0  0  0  0
  -16.8944  -22.7892   24.1926 C   0  0  0  0  0  0  0  0  0  0  0  0
  -15.2822  -22.2916   23.9680 S   0  0  0  0  0  0  0  0  0  0  0  0
  -14.6706  -23.6840   24.7698 C   0  0  0  0  0  0  0  0  0  0  0  0
  -13.3722  -23.9781   25.2553 C   0  0  0  0  0  0  0  0  0  0  0  0
  -10.2470  -27.0650   26.1256 H   0  0  0  0  0  0  0  0  0  0  0  0
  -11.7122  -27.4306   25.6208 H   0  0  0  0  0  0  0  0  0  0  0  0
  -12.1043  -26.9016   29.8918 H   0  0  0  0  0  0  0  0  0  0  0  0
  -12.0592  -25.2085   29.5141 H   0  0  0  0  0  0  0  0  0  0  0  0
   -9.6846  -27.0950   29.2942 H   0  0  0  0  0  0  0  0  0  0  0  0
   -9.5900  -25.3495   29.1660 H   0  0  0  0  0  0  0  0  0  0  0  0
   -8.9505  -26.4063   31.4180 H   0  0  0  0  0  0  0  0  0  0  0  0
  -10.6439  -26.8254   31.6624 H   0  0  0  0  0  0  0  0  0  0  0  0
   -9.2381  -24.3858   31.9490 H   0  0  0  0  0  0  0  0  0  0  0  0
  -10.6149  -24.9591   33.6991 H   0  0  0  0  0  0  0  0  0  0  0  0
  -11.9556  -25.2060   32.5842 H   0  0  0  0  0  0  0  0  0  0  0  0
  -13.4459  -23.2283   34.0673 H   0  0  0  0  0  0  0  0  0  0  0  0
  -14.6920  -22.9720   31.8593 H   0  0  0  0  0  0  0  0  0  0  0  0
  -13.9110  -23.7043   29.1772 H   0  0  0  0  0  0  0  0  0  0  0  0
  -11.8846  -22.4647   27.7103 H   0  0  0  0  0  0  0  0  0  0  0  0
  -11.2272  -21.0826   32.4717 H   0  0  0  0  0  0  0  0  0  0  0  0
  -14.1786  -26.8833   26.8615 H   0  0  0  0  0  0  0  0  0  0  0  0
  -16.4109  -26.3485   25.9425 H   0  0  0  0  0  0  0  0  0  0  0  0
  -17.7465  -22.1726   23.9319 H   0  0  0  0  0  0  0  0  0  0  0  0
  -12.5425  -23.2974   25.0785 H   0  0  0  0  0  0  0  0  0  0  0  0
  1  2  1  0
  2  3  2  0
  2  4  2  0
  4  5  1  0
  5  6  1  0
  6  7  1  0
  7  8  1  0
  8  9  1  0
  9 10  1  0
 10 11  1  0
 11 12  2  0
 12 13  1  0
 13 14  1  0
 14 15  2  0
 15 16  1  0
 16 17  2  0
 17 18  1  0
  2 19  1  0
 19 20  2  0
 20 21  1  0
 21 22  2  0
 22 23  1  0
 23 24  2  0
 24 25  1  0
 25 26  1  0
 26 27  2  0
 18 10  2  0
 27 19  1  0
 17 13  1  0
 26 22  1  0
  1 28  1  0
  1 29  1  0
  5 30  1  0
  5 31  1  0
  6 32  1  0
  6 33  1  0
  7 34  1  0
  7 35  1  0
  8 36  1  0
  9 37  1  0
  9 38  1  0
 11 39  1  0
 12 40  1  0
 14 41  1  0
 15 42  1  0
 18 43  1  0
 20 44  1  0
 21 45  1  0
 24 46  1  0
 27 47  1  0
M  END
>  <Energy>  (978) 
0.68601285740861151

>  <compound_id>  (978) 
799

>  <target_id>  (978) 
1

>  <reference_id>  (978) 
107

>  <inspiration_ids>  (978) 
[42, 107]

>  <energy_score>  (978) 
-29.585280286218364

>  <distance_score>  (978) 
1.5618798535775729

>  <path>  (978) 
/opt/xchem-fragalysis-2/maxwin/BulkDock/SCRATCH/505732/C799-P107/C799-P107.minimised.mol

>  <scratch_subdir>  (978) 
/opt/xchem-fragalysis-2/maxwin/BulkDock/SCRATCH/505732/C799-P107

>  <fragmenstein_runtime>  (978) 
4.905674695968628

>  <fragmenstein_outcome>  (978) 
too moved

>  <fragmenstein_mode>  (978) 
expansion

>  <fragmenstein_error>  (978) 


$$$$
C2253-P42
     RDKit          3D

 48 50  0  0  0  0  0  0  0  0999 V2000
   -9.8431  -25.8027   34.1043 C   0  0  0  0  0  0  0  0  0  0  0  0
   -9.2472  -25.3687   32.7817 C   0  0  0  0  0  0  0  0  0  0  0  0
   -9.8538  -25.8833   31.5953 N   0  0  0  0  0  0  0  0  0  0  0  0
  -10.5551  -27.0184   31.4650 C   0  0  0  0  0  0  0  0  0  0  0  0
  -10.9299  -27.1422   30.1698 C   0  0  0  0  0  0  0  0  0  0  0  0
  -10.3243  -26.0358   29.5715 C   0  0  0  0  0  0  0  0  0  0  0  0
  -10.4161  -25.5641   28.1783 C   0  0  0  0  0  0  0  0  0  0  0  0
  -11.3104  -26.4137   27.2577 C   0  0  0  0  0  0  0  0  0  0  0  0
  -12.6878  -25.8687   26.9489 C   0  0  0  0  0  0  0  0  0  0  0  0
  -12.6569  -24.7165   26.0233 C   0  0  0  0  0  0  0  0  0  0  0  0
  -11.4992  -24.0860   25.4738 C   0  0  0  0  0  0  0  0  0  0  0  0
  -11.8979  -22.9908   24.7659 C   0  0  0  0  0  0  0  0  0  0  0  0
  -13.2369  -22.9101   24.9117 N   0  0  0  0  0  0  0  0  0  0  0  0
  -14.0018  -21.8538   24.5411 C   0  0  0  0  0  0  0  0  0  0  0  0
  -15.3252  -21.9689   24.5511 C   0  0  0  0  0  0  0  0  0  0  0  0
  -15.9213  -23.2261   24.9795 C   0  0  0  0  0  0  0  0  0  0  0  0
  -17.4080  -23.2450   24.9091 C   0  0  0  0  0  0  0  0  0  0  0  0
  -17.8640  -22.8145   23.5850 N   0  0  0  0  0  0  0  0  0  0  0  0
  -15.1532  -24.2240   25.4723 C   0  0  0  0  0  0  0  0  0  0  0  0
  -13.7395  -24.0525   25.4946 C   0  0  0  0  0  0  0  0  0  0  0  0
  -10.5593  -24.1024   28.1810 N   0  0  0  0  0  0  0  0  0  0  0  0
  -11.6253  -23.5443   29.0021 C   0  0  0  0  0  0  0  0  0  0  0  0
   -9.5615  -25.3409   30.4283 N   0  0  0  0  0  0  0  0  0  0  0  0
  -10.8742  -25.4505   34.1982 H   0  0  0  0  0  0  0  0  0  0  0  0
   -9.2516  -25.4092   34.9346 H   0  0  0  0  0  0  0  0  0  0  0  0
   -9.8452  -26.8813   34.2346 H   0  0  0  0  0  0  0  0  0  0  0  0
   -8.2203  -25.7289   32.7155 H   0  0  0  0  0  0  0  0  0  0  0  0
   -9.2904  -24.2786   32.6992 H   0  0  0  0  0  0  0  0  0  0  0  0
  -10.7613  -27.5902   32.3256 H   0  0  0  0  0  0  0  0  0  0  0  0
  -11.5711  -27.8995   29.7500 H   0  0  0  0  0  0  0  0  0  0  0  0
   -9.4174  -25.7608   27.7893 H   0  0  0  0  0  0  0  0  0  0  0  0
  -10.7877  -26.5793   26.3070 H   0  0  0  0  0  0  0  0  0  0  0  0
  -11.4357  -27.4270   27.6519 H   0  0  0  0  0  0  0  0  0  0  0  0
  -13.2408  -25.6426   27.8629 H   0  0  0  0  0  0  0  0  0  0  0  0
  -13.2650  -26.6580   26.4655 H   0  0  0  0  0  0  0  0  0  0  0  0
  -10.4662  -24.3731   25.5882 H   0  0  0  0  0  0  0  0  0  0  0  0
  -11.3482  -22.2630   24.1833 H   0  0  0  0  0  0  0  0  0  0  0  0
  -13.4406  -20.9647   24.3529 H   0  0  0  0  0  0  0  0  0  0  0  0
  -15.9681  -21.1257   24.3274 H   0  0  0  0  0  0  0  0  0  0  0  0
  -17.8174  -22.5626   25.6640 H   0  0  0  0  0  0  0  0  0  0  0  0
  -17.8130  -24.2388   25.1312 H   0  0  0  0  0  0  0  0  0  0  0  0
  -18.2170  -23.6375   23.0889 H   0  0  0  0  0  0  0  0  0  0  0  0
  -18.6953  -22.2337   23.7045 H   0  0  0  0  0  0  0  0  0  0  0  0
  -15.5809  -25.1518   25.8370 H   0  0  0  0  0  0  0  0  0  0  0  0
   -9.6866  -23.7458   28.5639 H   0  0  0  0  0  0  0  0  0  0  0  0
  -11.4618  -23.6755   30.0729 H   0  0  0  0  0  0  0  0  0  0  0  0
  -12.6077  -23.9212   28.7372 H   0  0  0  0  0  0  0  0  0  0  0  0
  -11.6533  -22.4629   28.8270 H   0  0  0  0  0  0  0  0  0  0  0  0
  1  2  1  0
  2  3  1  0
  3  4  1  0
  4  5  2  0
  5  6  1  0
  6  7  1  0
  7  8  1  0
  8  9  1  0
  9 10  1  0
 10 11  1  0
 11 12  2  0
 12 13  1  0
 13 14  1  0
 14 15  2  0
 15 16  1  0
 16 17  1  0
 17 18  1  0
 16 19  2  0
 19 20  1  0
  7 21  1  0
 21 22  1  0
  6 23  2  0
 23  3  1  0
 20 10  2  0
 20 13  1  0
  1 24  1  0
  1 25  1  0
  1 26  1  0
  2 27  1  0
  2 28  1  0
  4 29  1  0
  5 30  1  0
  7 31  1  0
  8 32  1  0
  8 33  1  0
  9 34  1  0
  9 35  1  0
 11 36  1  0
 12 37  1  0
 14 38  1  0
 15 39  1  0
 17 40  1  0
 17 41  1  0
 18 42  1  0
 18 43  1  0
 19 44  1  0
 21 45  1  0
 22 46  1  0
 22 47  1  0
 22 48  1  0
M  END
>  <Energy>  (979) 
74.923055379564673

>  <compound_id>  (979) 
2253

>  <target_id>  (979) 
1

>  <reference_id>  (979) 
42

>  <inspiration_ids>  (979) 
[42, 110]

>  <energy_score>  (979) 
5.702885851861311

>  <distance_score>  (979) 
1.4217006053663277

>  <path>  (979) 
/opt/xchem-fragalysis-2/maxwin/BulkDock/SCRATCH/505732/C2253-P42/C2253-P42.minimised.mol

>  <scratch_subdir>  (979) 
/opt/xchem-fragalysis-2/maxwin/BulkDock/SCRATCH/505732/C2253-P42

>  <fragmenstein_runtime>  (979) 
6.916470527648926

>  <fragmenstein_outcome>  (979) 
too moved

>  <fragmenstein_mode>  (979) 
expansion

>  <fragmenstein_error>  (979) 


$$$$
C2253-P110
     RDKit          3D

 48 50  0  0  0  0  0  0  0  0999 V2000
  -10.5179  -25.4523   33.6606 C   0  0  0  0  0  0  0  0  0  0  0  0
   -9.5118  -25.2017   32.5629 C   0  0  0  0  0  0  0  0  0  0  0  0
   -9.8615  -25.8582   31.3300 N   0  0  0  0  0  0  0  0  0  0  0  0
  -10.5367  -27.0267   31.1550 C   0  0  0  0  0  0  0  0  0  0  0  0
  -10.9758  -27.0041   29.8690 C   0  0  0  0  0  0  0  0  0  0  0  0
  -10.4954  -25.7902   29.3513 C   0  0  0  0  0  0  0  0  0  0  0  0
  -10.9664  -25.0752   28.1361 C   0  0  0  0  0  0  0  0  0  0  0  0
  -11.3447  -26.1071   27.0388 C   0  0  0  0  0  0  0  0  0  0  0  0
  -12.7059  -25.9258   26.3810 C   0  0  0  0  0  0  0  0  0  0  0  0
  -12.8253  -24.6722   25.6063 C   0  0  0  0  0  0  0  0  0  0  0  0
  -11.7406  -23.8613   25.1638 C   0  0  0  0  0  0  0  0  0  0  0  0
  -12.2546  -22.7825   24.4913 C   0  0  0  0  0  0  0  0  0  0  0  0
  -13.6077  -22.8440   24.6166 N   0  0  0  0  0  0  0  0  0  0  0  0
  -14.4979  -21.8216   24.4030 C   0  0  0  0  0  0  0  0  0  0  0  0
  -15.7976  -22.0339   24.5257 C   0  0  0  0  0  0  0  0  0  0  0  0
  -16.2461  -23.3835   24.8077 C   0  0  0  0  0  0  0  0  0  0  0  0
  -17.7167  -23.5475   24.6981 C   0  0  0  0  0  0  0  0  0  0  0  0
  -18.1862  -23.0074   23.4197 N   0  0  0  0  0  0  0  0  0  0  0  0
  -15.3741  -24.3580   25.1567 C   0  0  0  0  0  0  0  0  0  0  0  0
  -13.9797  -24.0671   25.1502 C   0  0  0  0  0  0  0  0  0  0  0  0
  -12.1160  -24.2159   28.5514 N   0  0  0  0  0  0  0  0  0  0  0  0
  -11.7108  -23.1434   29.4521 C   0  0  0  0  0  0  0  0  0  0  0  0
   -9.6360  -25.2053   30.1879 N   0  0  0  0  0  0  0  0  0  0  0  0
  -11.4273  -24.8621   33.5137 H   0  0  0  0  0  0  0  0  0  0  0  0
  -10.0862  -25.2325   34.6311 H   0  0  0  0  0  0  0  0  0  0  0  0
  -10.7953  -26.4975   33.7193 H   0  0  0  0  0  0  0  0  0  0  0  0
   -8.5131  -25.5504   32.8191 H   0  0  0  0  0  0  0  0  0  0  0  0
   -9.4477  -24.1250   32.3819 H   0  0  0  0  0  0  0  0  0  0  0  0
  -10.7399  -27.7233   31.9491 H   0  0  0  0  0  0  0  0  0  0  0  0
  -11.6711  -27.6970   29.4290 H   0  0  0  0  0  0  0  0  0  0  0  0
  -10.1638  -24.4382   27.7414 H   0  0  0  0  0  0  0  0  0  0  0  0
  -10.5658  -26.1030   26.2697 H   0  0  0  0  0  0  0  0  0  0  0  0
  -11.3257  -27.1381   27.4028 H   0  0  0  0  0  0  0  0  0  0  0  0
  -13.5060  -25.9984   27.1264 H   0  0  0  0  0  0  0  0  0  0  0  0
  -12.8665  -26.7582   25.6853 H   0  0  0  0  0  0  0  0  0  0  0  0
  -10.6892  -24.0774   25.2680 H   0  0  0  0  0  0  0  0  0  0  0  0
  -11.7812  -21.9509   23.9869 H   0  0  0  0  0  0  0  0  0  0  0  0
  -14.0894  -20.8343   24.3810 H   0  0  0  0  0  0  0  0  0  0  0  0
  -16.4967  -21.2058   24.5201 H   0  0  0  0  0  0  0  0  0  0  0  0
  -18.2318  -23.0425   25.5233 H   0  0  0  0  0  0  0  0  0  0  0  0
  -17.9884  -24.6082   24.7490 H   0  0  0  0  0  0  0  0  0  0  0  0
  -19.1187  -23.3789   23.2371 H   0  0  0  0  0  0  0  0  0  0  0  0
  -18.3296  -22.0021   23.5212 H   0  0  0  0  0  0  0  0  0  0  0  0
  -15.7063  -25.3592   25.4069 H   0  0  0  0  0  0  0  0  0  0  0  0
  -12.4349  -23.7304   27.7087 H   0  0  0  0  0  0  0  0  0  0  0  0
  -10.9088  -22.5481   29.0084 H   0  0  0  0  0  0  0  0  0  0  0  0
  -11.4452  -23.4826   30.4545 H   0  0  0  0  0  0  0  0  0  0  0  0
  -12.5445  -22.4493   29.5832 H   0  0  0  0  0  0  0  0  0  0  0  0
  1  2  1  0
  2  3  1  0
  3  4  1  0
  4  5  2  0
  5  6  1  0
  6  7  1  0
  7  8  1  0
  8  9  1  0
  9 10  1  0
 10 11  1  0
 11 12  2  0
 12 13  1  0
 13 14  1  0
 14 15  2  0
 15 16  1  0
 16 17  1  0
 17 18  1  0
 16 19  2  0
 19 20  1  0
  7 21  1  0
 21 22  1  0
  6 23  2  0
 23  3  1  0
 20 10  2  0
 20 13  1  0
  1 24  1  0
  1 25  1  0
  1 26  1  0
  2 27  1  0
  2 28  1  0
  4 29  1  0
  5 30  1  0
  7 31  1  0
  8 32  1  0
  8 33  1  0
  9 34  1  0
  9 35  1  0
 11 36  1  0
 12 37  1  0
 14 38  1  0
 15 39  1  0
 17 40  1  0
 17 41  1  0
 18 42  1  0
 18 43  1  0
 19 44  1  0
 21 45  1  0
 22 46  1  0
 22 47  1  0
 22 48  1  0
M  END
>  <Energy>  (980) 
71.509025276391938

>  <compound_id>  (980) 
2253

>  <target_id>  (980) 
1

>  <reference_id>  (980) 
110

>  <inspiration_ids>  (980) 
[42, 110]

>  <energy_score>  (980) 
2.288855748690537

>  <distance_score>  (980) 
1.6353365463957914

>  <path>  (980) 
/opt/xchem-fragalysis-2/maxwin/BulkDock/SCRATCH/505732/C2253-P110/C2253-P110.minimised.mol

>  <scratch_subdir>  (980) 
/opt/xchem-fragalysis-2/maxwin/BulkDock/SCRATCH/505732/C2253-P110

>  <fragmenstein_runtime>  (980) 
7.141064643859863

>  <fragmenstein_outcome>  (980) 
too moved

>  <fragmenstein_mode>  (980) 
expansion

>  <fragmenstein_error>  (980) 


$$$$
C2254-P42
     RDKit          3D

 43 45  0  0  0  0  0  0  0  0999 V2000
  -11.5168  -28.2902   30.7414 C   0  0  0  0  0  0  0  0  0  0  0  0
  -10.7815  -27.0269   30.9863 C   0  0  0  0  0  0  0  0  0  0  0  0
  -10.4346  -26.5702   32.2652 C   0  0  0  0  0  0  0  0  0  0  0  0
   -9.7826  -25.3886   32.4692 C   0  0  0  0  0  0  0  0  0  0  0  0
   -9.3889  -24.6550   31.4527 N   0  0  0  0  0  0  0  0  0  0  0  0
   -9.6940  -25.1140   30.2239 C   0  0  0  0  0  0  0  0  0  0  0  0
  -10.3862  -26.2564   29.9290 C   0  0  0  0  0  0  0  0  0  0  0  0
  -10.5393  -26.5493   28.5910 N   0  0  0  0  0  0  0  0  0  0  0  0
  -11.6461  -27.3518   27.8545 C   0  0  0  0  0  0  0  0  0  0  0  0
  -12.5554  -27.9524   28.2776 O   0  0  0  0  0  0  0  0  0  0  0  0
  -11.3625  -27.1793   26.4046 C   0  0  0  0  0  0  0  0  0  0  0  0
  -12.4607  -26.2946   25.9115 C   0  0  0  0  0  0  0  0  0  0  0  0
  -12.3810  -24.8657   26.2158 C   0  0  0  0  0  0  0  0  0  0  0  0
  -11.3761  -24.0728   26.8149 C   0  0  0  0  0  0  0  0  0  0  0  0
  -11.8161  -22.7743   26.7885 C   0  0  0  0  0  0  0  0  0  0  0  0
  -12.8541  -22.7595   25.9120 N   0  0  0  0  0  0  0  0  0  0  0  0
  -13.3343  -21.7449   25.1361 C   0  0  0  0  0  0  0  0  0  0  0  0
  -14.5411  -21.8922   24.5859 C   0  0  0  0  0  0  0  0  0  0  0  0
  -15.3361  -23.0781   24.8590 C   0  0  0  0  0  0  0  0  0  0  0  0
  -16.8198  -22.9813   24.6603 C   0  0  0  0  0  0  0  0  0  0  0  0
  -17.1809  -22.2292   23.4600 N   0  0  0  0  0  0  0  0  0  0  0  0
  -14.7401  -24.1565   25.4063 C   0  0  0  0  0  0  0  0  0  0  0  0
  -13.4065  -24.0154   25.8847 C   0  0  0  0  0  0  0  0  0  0  0  0
  -11.1695  -28.6356   29.8071 H   0  0  0  0  0  0  0  0  0  0  0  0
  -12.5880  -28.1815   30.6194 H   0  0  0  0  0  0  0  0  0  0  0  0
  -11.3461  -29.1090   31.4236 H   0  0  0  0  0  0  0  0  0  0  0  0
  -10.6210  -27.1260   33.1594 H   0  0  0  0  0  0  0  0  0  0  0  0
   -9.5456  -25.0357   33.4611 H   0  0  0  0  0  0  0  0  0  0  0  0
   -9.3758  -24.4972   29.3956 H   0  0  0  0  0  0  0  0  0  0  0  0
   -9.8581  -26.2205   27.9213 H   0  0  0  0  0  0  0  0  0  0  0  0
  -11.3544  -28.1705   25.9486 H   0  0  0  0  0  0  0  0  0  0  0  0
  -10.3866  -26.7697   26.1969 H   0  0  0  0  0  0  0  0  0  0  0  0
  -12.5112  -26.4191   24.8283 H   0  0  0  0  0  0  0  0  0  0  0  0
  -13.4261  -26.6278   26.3115 H   0  0  0  0  0  0  0  0  0  0  0  0
  -10.4288  -24.3611   27.2330 H   0  0  0  0  0  0  0  0  0  0  0  0
  -11.3906  -21.8618   27.1819 H   0  0  0  0  0  0  0  0  0  0  0  0
  -12.7242  -20.8687   25.0293 H   0  0  0  0  0  0  0  0  0  0  0  0
  -14.9972  -21.0695   24.0675 H   0  0  0  0  0  0  0  0  0  0  0  0
  -17.2890  -22.5038   25.5274 H   0  0  0  0  0  0  0  0  0  0  0  0
  -17.2535  -23.9858   24.5844 H   0  0  0  0  0  0  0  0  0  0  0  0
  -17.2141  -21.2374   23.7168 H   0  0  0  0  0  0  0  0  0  0  0  0
  -18.1560  -22.4410   23.2301 H   0  0  0  0  0  0  0  0  0  0  0  0
  -15.2869  -25.0684   25.6246 H   0  0  0  0  0  0  0  0  0  0  0  0
  1  2  1  0
  2  3  2  0
  3  4  1  0
  4  5  2  0
  5  6  1  0
  6  7  2  0
  7  8  1  0
  8  9  1  0
  9 10  2  0
  9 11  1  0
 11 12  1  0
 12 13  1  0
 13 14  1  0
 14 15  2  0
 15 16  1  0
 16 17  1  0
 17 18  2  0
 18 19  1  0
 19 20  1  0
 20 21  1  0
 19 22  2  0
 22 23  1  0
  7  2  1  0
 23 13  2  0
 23 16  1  0
  1 24  1  0
  1 25  1  0
  1 26  1  0
  3 27  1  0
  4 28  1  0
  6 29  1  0
  8 30  1  0
 11 31  1  0
 11 32  1  0
 12 33  1  0
 12 34  1  0
 14 35  1  0
 15 36  1  0
 17 37  1  0
 18 38  1  0
 20 39  1  0
 20 40  1  0
 21 41  1  0
 21 42  1  0
 22 43  1  0
M  END
>  <Energy>  (981) 
91.271087932869804

>  <compound_id>  (981) 
2254

>  <target_id>  (981) 
1

>  <reference_id>  (981) 
42

>  <inspiration_ids>  (981) 
[42, 115]

>  <energy_score>  (981) 
14.801429627447533

>  <distance_score>  (981) 
1.9349365306277797

>  <path>  (981) 
/opt/xchem-fragalysis-2/maxwin/BulkDock/SCRATCH/505732/C2254-P42/C2254-P42.minimised.mol

>  <scratch_subdir>  (981) 
/opt/xchem-fragalysis-2/maxwin/BulkDock/SCRATCH/505732/C2254-P42

>  <fragmenstein_runtime>  (981) 
8.368399381637573

>  <fragmenstein_outcome>  (981) 
too moved

>  <fragmenstein_mode>  (981) 
expansion

>  <fragmenstein_error>  (981) 


$$$$
C2254-P115
     RDKit          3D

 43 45  0  0  0  0  0  0  0  0999 V2000
  -11.6740  -22.9243   31.2701 C   0  0  0  0  0  0  0  0  0  0  0  0
  -11.0908  -23.8947   32.2573 C   0  0  0  0  0  0  0  0  0  0  0  0
  -11.1004  -23.5099   33.6003 C   0  0  0  0  0  0  0  0  0  0  0  0
  -10.4593  -24.2965   34.5386 C   0  0  0  0  0  0  0  0  0  0  0  0
   -9.7346  -25.3884   34.2241 N   0  0  0  0  0  0  0  0  0  0  0  0
   -9.7158  -25.7424   32.9285 C   0  0  0  0  0  0  0  0  0  0  0  0
  -10.4210  -25.0759   31.9323 C   0  0  0  0  0  0  0  0  0  0  0  0
  -10.4392  -25.6823   30.6898 N   0  0  0  0  0  0  0  0  0  0  0  0
  -11.6115  -25.9319   29.7107 C   0  0  0  0  0  0  0  0  0  0  0  0
  -12.7255  -25.5972   29.7663 O   0  0  0  0  0  0  0  0  0  0  0  0
  -11.0736  -26.7869   28.6146 C   0  0  0  0  0  0  0  0  0  0  0  0
  -11.8299  -26.6437   27.3202 C   0  0  0  0  0  0  0  0  0  0  0  0
  -11.8438  -25.2921   26.7835 C   0  0  0  0  0  0  0  0  0  0  0  0
  -10.9857  -24.2477   27.2097 C   0  0  0  0  0  0  0  0  0  0  0  0
  -11.5181  -23.1190   26.6826 C   0  0  0  0  0  0  0  0  0  0  0  0
  -12.2750  -23.5092   25.6174 N   0  0  0  0  0  0  0  0  0  0  0  0
  -12.7019  -22.7773   24.5340 C   0  0  0  0  0  0  0  0  0  0  0  0
  -13.9223  -23.0553   24.0758 C   0  0  0  0  0  0  0  0  0  0  0  0
  -14.7120  -24.1291   24.6662 C   0  0  0  0  0  0  0  0  0  0  0  0
  -16.2219  -24.0744   24.5568 C   0  0  0  0  0  0  0  0  0  0  0  0
  -16.7410  -22.8927   23.8317 N   0  0  0  0  0  0  0  0  0  0  0  0
  -14.0641  -25.0801   25.3859 C   0  0  0  0  0  0  0  0  0  0  0  0
  -12.7775  -24.7523   25.9231 C   0  0  0  0  0  0  0  0  0  0  0  0
  -11.0283  -22.0431   31.1982 H   0  0  0  0  0  0  0  0  0  0  0  0
  -12.6487  -22.5630   31.6078 H   0  0  0  0  0  0  0  0  0  0  0  0
  -11.7841  -23.3325   30.2664 H   0  0  0  0  0  0  0  0  0  0  0  0
  -11.6090  -22.6065   33.9092 H   0  0  0  0  0  0  0  0  0  0  0  0
  -10.5034  -24.0470   35.5938 H   0  0  0  0  0  0  0  0  0  0  0  0
   -9.1495  -26.6455   32.7208 H   0  0  0  0  0  0  0  0  0  0  0  0
   -9.6210  -26.1873   30.3736 H   0  0  0  0  0  0  0  0  0  0  0  0
  -10.0043  -26.6180   28.4581 H   0  0  0  0  0  0  0  0  0  0  0  0
  -11.2602  -27.7859   28.9752 H   0  0  0  0  0  0  0  0  0  0  0  0
  -12.8590  -26.9886   27.4715 H   0  0  0  0  0  0  0  0  0  0  0  0
  -11.3421  -27.2811   26.5795 H   0  0  0  0  0  0  0  0  0  0  0  0
  -10.2136  -24.2654   27.9651 H   0  0  0  0  0  0  0  0  0  0  0  0
  -11.3654  -22.0774   26.9179 H   0  0  0  0  0  0  0  0  0  0  0  0
  -12.1449  -21.9046   24.2230 H   0  0  0  0  0  0  0  0  0  0  0  0
  -14.3155  -22.4167   23.3329 H   0  0  0  0  0  0  0  0  0  0  0  0
  -16.7022  -24.0800   25.5335 H   0  0  0  0  0  0  0  0  0  0  0  0
  -16.5790  -24.9866   24.0615 H   0  0  0  0  0  0  0  0  0  0  0  0
  -16.5132  -22.0653   24.3973 H   0  0  0  0  0  0  0  0  0  0  0  0
  -17.7633  -22.9292   23.8699 H   0  0  0  0  0  0  0  0  0  0  0  0
  -14.5787  -25.9451   25.7837 H   0  0  0  0  0  0  0  0  0  0  0  0
  1  2  1  0
  2  3  2  0
  3  4  1  0
  4  5  2  0
  5  6  1  0
  6  7  2  0
  7  8  1  0
  8  9  1  0
  9 10  2  0
  9 11  1  0
 11 12  1  0
 12 13  1  0
 13 14  1  0
 14 15  2  0
 15 16  1  0
 16 17  1  0
 17 18  2  0
 18 19  1  0
 19 20  1  0
 20 21  1  0
 19 22  2  0
 22 23  1  0
  7  2  1  0
 23 13  2  0
 23 16  1  0
  1 24  1  0
  1 25  1  0
  1 26  1  0
  3 27  1  0
  4 28  1  0
  6 29  1  0
  8 30  1  0
 11 31  1  0
 11 32  1  0
 12 33  1  0
 12 34  1  0
 14 35  1  0
 15 36  1  0
 17 37  1  0
 18 38  1  0
 20 39  1  0
 20 40  1  0
 21 41  1  0
 21 42  1  0
 22 43  1  0
M  END
>  <Energy>  (982) 
91.967645115434706

>  <compound_id>  (982) 
2254

>  <target_id>  (982) 
1

>  <reference_id>  (982) 
115

>  <inspiration_ids>  (982) 
[42, 115]

>  <energy_score>  (982) 
15.49798681001306

>  <distance_score>  (982) 
1.6022484508189474

>  <path>  (982) 
/opt/xchem-fragalysis-2/maxwin/BulkDock/SCRATCH/505732/C2254-P115/C2254-P115.minimised.mol

>  <scratch_subdir>  (982) 
/opt/xchem-fragalysis-2/maxwin/BulkDock/SCRATCH/505732/C2254-P115

>  <fragmenstein_runtime>  (982) 
9.5941002368927

>  <fragmenstein_outcome>  (982) 
too moved

>  <fragmenstein_mode>  (982) 
expansion

>  <fragmenstein_error>  (982) 


$$$$
C1212-P42
     RDKit          3D

 45 48  0  0  0  0  0  0  0  0999 V2000
  -11.3722  -27.3306   24.5873 O   0  0  0  0  0  0  0  0  0  0  0  0
  -11.6006  -26.8364   25.6705 C   0  0  0  0  0  0  0  0  0  0  0  0
  -11.5865  -27.3726   26.8659 O   0  0  0  0  0  0  0  0  0  0  0  0
  -11.9215  -26.1884   27.8575 C   0  0  0  0  0  0  0  0  0  0  0  0
  -12.1400  -24.0448   27.2503 C   0  0  0  0  0  0  0  0  0  0  0  0
  -13.3913  -23.1446   26.7168 N   0  0  0  0  0  0  0  0  0  0  0  0
  -13.5295  -22.9384   25.2575 C   0  0  0  0  0  0  0  0  0  0  0  0
  -14.9457  -23.2943   24.8401 C   0  0  0  0  0  0  0  0  0  0  0  0
  -15.3467  -24.7032   24.7777 C   0  0  0  0  0  0  0  0  0  0  0  0
  -16.6491  -25.0325   24.8113 C   0  0  0  0  0  0  0  0  0  0  0  0
  -17.5950  -24.0170   24.7530 N   0  0  0  0  0  0  0  0  0  0  0  0
  -18.9629  -24.0868   24.7301 C   0  0  0  0  0  0  0  0  0  0  0  0
  -19.3922  -22.7913   24.5522 C   0  0  0  0  0  0  0  0  0  0  0  0
  -18.3301  -21.9275   24.4615 N   0  0  0  0  0  0  0  0  0  0  0  0
  -17.2606  -22.6780   24.5956 C   0  0  0  0  0  0  0  0  0  0  0  0
  -15.8800  -22.3401   24.6270 C   0  0  0  0  0  0  0  0  0  0  0  0
  -12.0019  -25.5613   26.0017 C   0  0  0  0  0  0  0  0  0  0  0  0
  -13.4813  -25.4469   26.9784 C   0  0  0  0  0  0  0  0  0  0  0  0
  -13.0843  -24.8943   28.7301 N   0  0  0  0  0  0  0  0  0  0  0  0
  -11.5416  -24.6612   29.1130 C   0  0  0  0  0  0  0  0  0  0  0  0
  -10.8222  -24.6614   30.3684 C   0  0  0  0  0  0  0  0  0  0  0  0
  -11.1138  -23.6994   31.3075 C   0  0  0  0  0  0  0  0  0  0  0  0
  -10.7795  -23.9500   32.6174 C   0  0  0  0  0  0  0  0  0  0  0  0
   -9.9474  -25.0170   32.9545 C   0  0  0  0  0  0  0  0  0  0  0  0
   -9.4366  -25.8281   31.9646 C   0  0  0  0  0  0  0  0  0  0  0  0
   -9.9294  -25.6932   30.6821 C   0  0  0  0  0  0  0  0  0  0  0  0
  -10.1705  -24.9785   27.3315 S   0  0  0  0  0  0  0  0  0  0  0  0
  -11.1573  -26.5260   28.6006 H   0  0  0  0  0  0  0  0  0  0  0  0
  -12.7797  -26.7222   28.3804 H   0  0  0  0  0  0  0  0  0  0  0  0
  -11.5110  -23.6639   26.3817 H   0  0  0  0  0  0  0  0  0  0  0  0
  -11.8210  -23.2238   27.9631 H   0  0  0  0  0  0  0  0  0  0  0  0
  -13.2215  -22.2194   27.1236 H   0  0  0  0  0  0  0  0  0  0  0  0
  -13.3306  -21.8799   25.0449 H   0  0  0  0  0  0  0  0  0  0  0  0
  -12.7983  -23.4821   24.6653 H   0  0  0  0  0  0  0  0  0  0  0  0
  -14.5949  -25.4726   24.6649 H   0  0  0  0  0  0  0  0  0  0  0  0
  -17.0078  -26.0536   24.7972 H   0  0  0  0  0  0  0  0  0  0  0  0
  -19.4975  -25.0198   24.8307 H   0  0  0  0  0  0  0  0  0  0  0  0
  -20.4120  -22.4340   24.4795 H   0  0  0  0  0  0  0  0  0  0  0  0
  -15.6377  -21.2874   24.6351 H   0  0  0  0  0  0  0  0  0  0  0  0
  -14.4271  -25.9751   26.8891 H   0  0  0  0  0  0  0  0  0  0  0  0
  -11.7386  -22.8397   31.0766 H   0  0  0  0  0  0  0  0  0  0  0  0
  -11.2712  -23.3226   33.3518 H   0  0  0  0  0  0  0  0  0  0  0  0
   -9.6929  -25.2358   33.9864 H   0  0  0  0  0  0  0  0  0  0  0  0
   -8.7262  -26.6091   32.2010 H   0  0  0  0  0  0  0  0  0  0  0  0
   -9.6498  -26.4521   29.9607 H   0  0  0  0  0  0  0  0  0  0  0  0
  1  2  2  0
  2  3  1  0
  3  4  1  0
  4  5  1  0
  5  6  1  0
  6  7  1  0
  7  8  1  0
  8  9  1  0
  9 10  2  0
 10 11  1  0
 11 12  1  0
 12 13  2  0
 13 14  1  0
 14 15  2  0
 15 16  1  0
  2 17  1  0
 17 18  2  0
 18 19  1  0
 19 20  2  0
 20 21  1  0
 21 22  2  0
 22 23  1  0
 23 24  2  0
 24 25  1  0
 25 26  2  0
 20 27  1  0
 16  8  2  0
 27 17  1  0
 15 11  1  0
 26 21  1  0
  4 28  1  0
  4 29  1  0
  5 30  1  0
  5 31  1  0
  6 32  1  0
  7 33  1  0
  7 34  1  0
  9 35  1  0
 10 36  1  0
 12 37  1  0
 13 38  1  0
 16 39  1  0
 18 40  1  0
 22 41  1  0
 23 42  1  0
 24 43  1  0
 25 44  1  0
 26 45  1  0
M  END
>  <Energy>  (983) 
1123.1166065144828

>  <compound_id>  (983) 
1212

>  <target_id>  (983) 
1

>  <reference_id>  (983) 
42

>  <inspiration_ids>  (983) 
[42, 119]

>  <energy_score>  (983) 
962.6656814635635

>  <distance_score>  (983) 
2.317841756832861

>  <path>  (983) 
/opt/xchem-fragalysis-2/maxwin/BulkDock/SCRATCH/505732/C1212-P42/C1212-P42.minimised.mol

>  <scratch_subdir>  (983) 
/opt/xchem-fragalysis-2/maxwin/BulkDock/SCRATCH/505732/C1212-P42

>  <fragmenstein_runtime>  (983) 
7.03216814994812

>  <fragmenstein_outcome>  (983) 
too moved

>  <fragmenstein_mode>  (983) 
expansion

>  <fragmenstein_error>  (983) 


$$$$
C1212-P119
     RDKit          3D

 45 48  0  0  0  0  0  0  0  0999 V2000
  -10.5073  -26.0929   25.6638 O   0  0  0  0  0  0  0  0  0  0  0  0
  -10.5868  -26.0087   26.8843 C   0  0  0  0  0  0  0  0  0  0  0  0
  -10.6500  -27.1693   27.6030 O   0  0  0  0  0  0  0  0  0  0  0  0
  -11.6305  -27.3757   28.6354 C   0  0  0  0  0  0  0  0  0  0  0  0
  -13.0906  -27.4995   28.1480 C   0  0  0  0  0  0  0  0  0  0  0  0
  -13.7223  -26.2188   27.8001 N   0  0  0  0  0  0  0  0  0  0  0  0
  -13.7274  -25.9444   26.3481 C   0  0  0  0  0  0  0  0  0  0  0  0
  -14.7427  -24.8921   26.0079 C   0  0  0  0  0  0  0  0  0  0  0  0
  -16.1000  -25.3404   26.2975 C   0  0  0  0  0  0  0  0  0  0  0  0
  -17.1300  -24.5249   26.0742 C   0  0  0  0  0  0  0  0  0  0  0  0
  -16.8964  -23.2928   25.5018 N   0  0  0  0  0  0  0  0  0  0  0  0
  -17.8064  -22.3402   25.1395 C   0  0  0  0  0  0  0  0  0  0  0  0
  -17.0769  -21.3862   24.4797 C   0  0  0  0  0  0  0  0  0  0  0  0
  -15.7548  -21.7577   24.3760 N   0  0  0  0  0  0  0  0  0  0  0  0
  -15.6392  -22.8480   25.1091 C   0  0  0  0  0  0  0  0  0  0  0  0
  -14.5227  -23.6831   25.4349 C   0  0  0  0  0  0  0  0  0  0  0  0
  -10.6442  -24.7939   27.6295 C   0  0  0  0  0  0  0  0  0  0  0  0
  -11.2635  -23.5924   27.3598 C   0  0  0  0  0  0  0  0  0  0  0  0
  -11.2963  -22.7113   28.4229 N   0  0  0  0  0  0  0  0  0  0  0  0
  -10.5921  -23.2087   29.4211 C   0  0  0  0  0  0  0  0  0  0  0  0
  -10.5576  -22.7282   30.7989 C   0  0  0  0  0  0  0  0  0  0  0  0
  -11.5331  -21.8237   31.2249 C   0  0  0  0  0  0  0  0  0  0  0  0
  -11.6123  -21.4541   32.5628 C   0  0  0  0  0  0  0  0  0  0  0  0
  -10.7057  -21.9702   33.4816 C   0  0  0  0  0  0  0  0  0  0  0  0
   -9.6864  -22.8159   33.0664 C   0  0  0  0  0  0  0  0  0  0  0  0
   -9.6171  -23.1993   31.7352 C   0  0  0  0  0  0  0  0  0  0  0  0
   -9.7125  -24.6155   29.0251 S   0  0  0  0  0  0  0  0  0  0  0  0
  -11.5070  -26.6377   29.4234 H   0  0  0  0  0  0  0  0  0  0  0  0
  -11.3624  -28.3330   29.0987 H   0  0  0  0  0  0  0  0  0  0  0  0
  -13.6562  -27.9151   28.9928 H   0  0  0  0  0  0  0  0  0  0  0  0
  -13.2563  -28.2399   27.3697 H   0  0  0  0  0  0  0  0  0  0  0  0
  -14.7045  -26.2887   28.0740 H   0  0  0  0  0  0  0  0  0  0  0  0
  -12.7653  -25.6071   25.9927 H   0  0  0  0  0  0  0  0  0  0  0  0
  -13.9750  -26.8520   25.7820 H   0  0  0  0  0  0  0  0  0  0  0  0
  -16.2871  -26.3375   26.6838 H   0  0  0  0  0  0  0  0  0  0  0  0
  -18.1577  -24.7934   26.2828 H   0  0  0  0  0  0  0  0  0  0  0  0
  -18.8565  -22.4114   25.3810 H   0  0  0  0  0  0  0  0  0  0  0  0
  -17.4451  -20.4555   24.0702 H   0  0  0  0  0  0  0  0  0  0  0  0
  -13.5422  -23.3187   25.1601 H   0  0  0  0  0  0  0  0  0  0  0  0
  -11.7785  -23.3243   26.4496 H   0  0  0  0  0  0  0  0  0  0  0  0
  -12.2790  -21.4527   30.5261 H   0  0  0  0  0  0  0  0  0  0  0  0
  -12.4065  -20.7914   32.8947 H   0  0  0  0  0  0  0  0  0  0  0  0
  -10.8161  -21.7112   34.5303 H   0  0  0  0  0  0  0  0  0  0  0  0
   -8.9649  -23.2000   33.7799 H   0  0  0  0  0  0  0  0  0  0  0  0
   -8.8175  -23.8829   31.4669 H   0  0  0  0  0  0  0  0  0  0  0  0
  1  2  2  0
  2  3  1  0
  3  4  1  0
  4  5  1  0
  5  6  1  0
  6  7  1  0
  7  8  1  0
  8  9  1  0
  9 10  2  0
 10 11  1  0
 11 12  1  0
 12 13  2  0
 13 14  1  0
 14 15  2  0
 15 16  1  0
  2 17  1  0
 17 18  2  0
 18 19  1  0
 19 20  2  0
 20 21  1  0
 21 22  2  0
 22 23  1  0
 23 24  2  0
 24 25  1  0
 25 26  2  0
 20 27  1  0
 16  8  2  0
 27 17  1  0
 15 11  1  0
 26 21  1  0
  4 28  1  0
  4 29  1  0
  5 30  1  0
  5 31  1  0
  6 32  1  0
  7 33  1  0
  7 34  1  0
  9 35  1  0
 10 36  1  0
 12 37  1  0
 13 38  1  0
 16 39  1  0
 18 40  1  0
 22 41  1  0
 23 42  1  0
 24 43  1  0
 25 44  1  0
 26 45  1  0
M  END
>  <Energy>  (984) 
95.926184971550114

>  <compound_id>  (984) 
1212

>  <target_id>  (984) 
1

>  <reference_id>  (984) 
119

>  <inspiration_ids>  (984) 
[42, 119]

>  <energy_score>  (984) 
-29.320832806889484

>  <distance_score>  (984) 
2.2273018063470085

>  <path>  (984) 
/opt/xchem-fragalysis-2/maxwin/BulkDock/SCRATCH/505732/C1212-P119/C1212-P119.minimised.mol

>  <scratch_subdir>  (984) 
/opt/xchem-fragalysis-2/maxwin/BulkDock/SCRATCH/505732/C1212-P119

>  <fragmenstein_runtime>  (984) 
4.886465311050415

>  <fragmenstein_outcome>  (984) 
too moved

>  <fragmenstein_mode>  (984) 
expansion

>  <fragmenstein_error>  (984) 


$$$$
C2255-P42
     RDKit          3D

 39 42  0  0  0  0  0  0  0  0999 V2000
   -9.6426  -25.3986   28.5421 N   0  0  0  0  0  0  0  0  0  0  0  0
  -10.6711  -25.9032   29.4007 C   0  0  0  0  0  0  0  0  0  0  0  0
  -11.8387  -26.0702   28.5509 N   0  0  0  0  0  0  0  0  0  0  0  0
  -12.0396  -24.7882   27.8931 O   0  0  0  0  0  0  0  0  0  0  0  0
  -13.1140  -24.7897   27.0543 C   0  0  0  0  0  0  0  0  0  0  0  0
  -14.1908  -25.6657   27.1191 C   0  0  0  0  0  0  0  0  0  0  0  0
  -15.2387  -25.5301   26.2180 C   0  0  0  0  0  0  0  0  0  0  0  0
  -16.2920  -26.3531   26.3094 F   0  0  0  0  0  0  0  0  0  0  0  0
  -15.2012  -24.5903   25.2026 C   0  0  0  0  0  0  0  0  0  0  0  0
  -14.1024  -23.7510   25.1111 C   0  0  0  0  0  0  0  0  0  0  0  0
  -13.0944  -23.8050   26.0815 C   0  0  0  0  0  0  0  0  0  0  0  0
  -12.0231  -22.9448   26.0571 O   0  0  0  0  0  0  0  0  0  0  0  0
  -12.3545  -21.7464   25.3577 C   0  0  0  0  0  0  0  0  0  0  0  0
  -12.8778  -22.0495   24.0138 C   0  0  0  0  0  0  0  0  0  0  0  0
  -13.8341  -22.9691   23.9218 C   0  0  0  0  0  0  0  0  0  0  0  0
  -10.7939  -25.0202   30.6089 C   0  0  0  0  0  0  0  0  0  0  0  0
  -10.5217  -25.6324   31.9120 C   0  0  0  0  0  0  0  0  0  0  0  0
  -10.9005  -24.9790   33.0200 C   0  0  0  0  0  0  0  0  0  0  0  0
  -11.4210  -23.6934   32.8895 N   0  0  0  0  0  0  0  0  0  0  0  0
  -12.1607  -22.9314   33.7520 C   0  0  0  0  0  0  0  0  0  0  0  0
  -12.3055  -21.7124   33.1475 C   0  0  0  0  0  0  0  0  0  0  0  0
  -11.7090  -21.7050   31.9135 N   0  0  0  0  0  0  0  0  0  0  0  0
  -11.3622  -22.9607   31.7223 C   0  0  0  0  0  0  0  0  0  0  0  0
  -11.1468  -23.7157   30.5401 C   0  0  0  0  0  0  0  0  0  0  0  0
  -10.0061  -24.5608   28.0889 H   0  0  0  0  0  0  0  0  0  0  0  0
   -8.8758  -25.0966   29.1315 H   0  0  0  0  0  0  0  0  0  0  0  0
  -10.3732  -26.9089   29.7186 H   0  0  0  0  0  0  0  0  0  0  0  0
  -11.4774  -26.6135   27.7637 H   0  0  0  0  0  0  0  0  0  0  0  0
  -14.2490  -26.4568   27.8551 H   0  0  0  0  0  0  0  0  0  0  0  0
  -16.0082  -24.5871   24.4847 H   0  0  0  0  0  0  0  0  0  0  0  0
  -11.4847  -21.1174   25.2381 H   0  0  0  0  0  0  0  0  0  0  0  0
  -13.0832  -21.1978   25.9442 H   0  0  0  0  0  0  0  0  0  0  0  0
  -12.4329  -21.5703   23.1516 H   0  0  0  0  0  0  0  0  0  0  0  0
  -14.1919  -23.3070   22.9723 H   0  0  0  0  0  0  0  0  0  0  0  0
  -10.1433  -26.6433   31.9578 H   0  0  0  0  0  0  0  0  0  0  0  0
  -10.8888  -25.4122   34.0097 H   0  0  0  0  0  0  0  0  0  0  0  0
  -12.4807  -23.3151   34.6979 H   0  0  0  0  0  0  0  0  0  0  0  0
  -12.7922  -20.8482   33.5687 H   0  0  0  0  0  0  0  0  0  0  0  0
  -11.3645  -23.2097   29.6070 H   0  0  0  0  0  0  0  0  0  0  0  0
  1  2  1  0
  2  3  1  0
  3  4  1  0
  4  5  1  0
  5  6  2  0
  6  7  1  0
  7  8  1  0
  7  9  2  0
  9 10  1  0
 10 11  2  0
 11 12  1  0
 12 13  1  0
 13 14  1  0
 14 15  2  0
  2 16  1  0
 16 17  1  0
 17 18  2  0
 18 19  1  0
 19 20  1  0
 20 21  2  0
 21 22  1  0
 22 23  2  0
 23 24  1  0
 11  5  1  0
 24 16  2  0
 15 10  1  0
 23 19  1  0
  1 25  1  0
  1 26  1  0
  2 27  1  0
  3 28  1  0
  6 29  1  0
  9 30  1  0
 13 31  1  0
 13 32  1  0
 14 33  1  0
 15 34  1  0
 17 35  1  0
 18 36  1  0
 20 37  1  0
 21 38  1  0
 24 39  1  0
M  END
>  <Energy>  (985) 
21.684920402011493

>  <compound_id>  (985) 
2255

>  <target_id>  (985) 
1

>  <reference_id>  (985) 
42

>  <inspiration_ids>  (985) 
[42, 123]

>  <energy_score>  (985) 
-14.770804389657286

>  <distance_score>  (985) 
1.6654321935966063

>  <path>  (985) 
/opt/xchem-fragalysis-2/maxwin/BulkDock/SCRATCH/505732/C2255-P42/C2255-P42.minimised.mol

>  <scratch_subdir>  (985) 
/opt/xchem-fragalysis-2/maxwin/BulkDock/SCRATCH/505732/C2255-P42

>  <fragmenstein_runtime>  (985) 
5.145335674285889

>  <fragmenstein_outcome>  (985) 
too moved

>  <fragmenstein_mode>  (985) 
expansion

>  <fragmenstein_error>  (985) 


$$$$
C2255-P123
     RDKit          3D

 39 42  0  0  0  0  0  0  0  0999 V2000
   -9.5210  -25.1944   29.2203 N   0  0  0  0  0  0  0  0  0  0  0  0
  -10.7353  -25.8047   29.6681 C   0  0  0  0  0  0  0  0  0  0  0  0
  -11.4279  -26.1739   28.4595 N   0  0  0  0  0  0  0  0  0  0  0  0
  -11.6311  -25.0217   27.5946 O   0  0  0  0  0  0  0  0  0  0  0  0
  -12.7754  -25.1986   26.8513 C   0  0  0  0  0  0  0  0  0  0  0  0
  -13.7310  -26.1838   27.1239 C   0  0  0  0  0  0  0  0  0  0  0  0
  -14.9067  -26.2538   26.3942 C   0  0  0  0  0  0  0  0  0  0  0  0
  -15.8160  -27.1877   26.7028 F   0  0  0  0  0  0  0  0  0  0  0  0
  -15.1778  -25.3407   25.4028 C   0  0  0  0  0  0  0  0  0  0  0  0
  -14.2288  -24.3665   25.1313 C   0  0  0  0  0  0  0  0  0  0  0  0
  -12.9996  -24.3210   25.8016 C   0  0  0  0  0  0  0  0  0  0  0  0
  -12.0213  -23.4311   25.4715 O   0  0  0  0  0  0  0  0  0  0  0  0
  -12.2046  -22.6863   24.2580 C   0  0  0  0  0  0  0  0  0  0  0  0
  -13.5674  -22.6391   23.7122 C   0  0  0  0  0  0  0  0  0  0  0  0
  -14.5814  -23.3157   24.2232 C   0  0  0  0  0  0  0  0  0  0  0  0
  -11.3381  -24.9571   30.7592 C   0  0  0  0  0  0  0  0  0  0  0  0
  -10.9892  -25.3966   32.1169 C   0  0  0  0  0  0  0  0  0  0  0  0
  -11.4372  -24.7219   33.1829 C   0  0  0  0  0  0  0  0  0  0  0  0
  -12.2142  -23.5962   32.9844 N   0  0  0  0  0  0  0  0  0  0  0  0
  -12.8125  -22.7718   33.8968 C   0  0  0  0  0  0  0  0  0  0  0  0
  -13.4700  -21.8232   33.1616 C   0  0  0  0  0  0  0  0  0  0  0  0
  -13.2354  -21.9897   31.8226 N   0  0  0  0  0  0  0  0  0  0  0  0
  -12.5190  -23.0920   31.7294 C   0  0  0  0  0  0  0  0  0  0  0  0
  -12.0660  -23.8300   30.5944 C   0  0  0  0  0  0  0  0  0  0  0  0
   -9.7896  -24.3206   28.7731 H   0  0  0  0  0  0  0  0  0  0  0  0
   -8.9827  -24.9634   30.0506 H   0  0  0  0  0  0  0  0  0  0  0  0
  -10.4661  -26.7691   30.1149 H   0  0  0  0  0  0  0  0  0  0  0  0
  -10.7106  -26.6535   27.9160 H   0  0  0  0  0  0  0  0  0  0  0  0
  -13.5895  -26.9098   27.9170 H   0  0  0  0  0  0  0  0  0  0  0  0
  -16.1295  -25.3850   24.8847 H   0  0  0  0  0  0  0  0  0  0  0  0
  -11.4668  -22.9981   23.5202 H   0  0  0  0  0  0  0  0  0  0  0  0
  -12.0076  -21.6295   24.4584 H   0  0  0  0  0  0  0  0  0  0  0  0
  -13.6944  -21.8407   23.0324 H   0  0  0  0  0  0  0  0  0  0  0  0
  -15.6123  -23.0421   24.0733 H   0  0  0  0  0  0  0  0  0  0  0  0
  -10.3967  -26.2933   32.2428 H   0  0  0  0  0  0  0  0  0  0  0  0
  -11.2571  -25.0298   34.2020 H   0  0  0  0  0  0  0  0  0  0  0  0
  -12.7309  -22.9319   34.9570 H   0  0  0  0  0  0  0  0  0  0  0  0
  -14.0892  -21.0209   33.5344 H   0  0  0  0  0  0  0  0  0  0  0  0
  -12.3254  -23.4508   29.6146 H   0  0  0  0  0  0  0  0  0  0  0  0
  1  2  1  0
  2  3  1  0
  3  4  1  0
  4  5  1  0
  5  6  2  0
  6  7  1  0
  7  8  1  0
  7  9  2  0
  9 10  1  0
 10 11  2  0
 11 12  1  0
 12 13  1  0
 13 14  1  0
 14 15  2  0
  2 16  1  0
 16 17  1  0
 17 18  2  0
 18 19  1  0
 19 20  1  0
 20 21  2  0
 21 22  1  0
 22 23  2  0
 23 24  1  0
 11  5  1  0
 24 16  2  0
 15 10  1  0
 23 19  1  0
  1 25  1  0
  1 26  1  0
  2 27  1  0
  3 28  1  0
  6 29  1  0
  9 30  1  0
 13 31  1  0
 13 32  1  0
 14 33  1  0
 15 34  1  0
 17 35  1  0
 18 36  1  0
 20 37  1  0
 21 38  1  0
 24 39  1  0
M  END
>  <Energy>  (986) 
14.875356416724022

>  <compound_id>  (986) 
2255

>  <target_id>  (986) 
1

>  <reference_id>  (986) 
123

>  <inspiration_ids>  (986) 
[42, 123]

>  <energy_score>  (986) 
-21.58036837494376

>  <distance_score>  (986) 
1.834443750456147

>  <path>  (986) 
/opt/xchem-fragalysis-2/maxwin/BulkDock/SCRATCH/505732/C2255-P123/C2255-P123.minimised.mol

>  <scratch_subdir>  (986) 
/opt/xchem-fragalysis-2/maxwin/BulkDock/SCRATCH/505732/C2255-P123

>  <fragmenstein_runtime>  (986) 
4.041536808013916

>  <fragmenstein_outcome>  (986) 
too moved

>  <fragmenstein_mode>  (986) 
expansion

>  <fragmenstein_error>  (986) 


$$$$
C2257-P42
     RDKit          3D

 44 47  0  0  0  0  0  0  0  0999 V2000
  -13.0072  -28.9773   28.6741 C   0  0  0  0  0  0  0  0  0  0  0  0
  -12.1336  -27.8129   28.9618 C   0  0  0  0  0  0  0  0  0  0  0  0
  -11.1716  -27.8355   29.9283 N   0  0  0  0  0  0  0  0  0  0  0  0
  -10.4733  -26.7209   30.0204 N   0  0  0  0  0  0  0  0  0  0  0  0
  -11.2207  -25.8327   29.3519 C   0  0  0  0  0  0  0  0  0  0  0  0
  -11.1781  -24.4546   29.8024 C   0  0  0  0  0  0  0  0  0  0  0  0
  -10.9470  -24.2620   31.1791 C   0  0  0  0  0  0  0  0  0  0  0  0
  -11.1094  -23.0191   31.7620 C   0  0  0  0  0  0  0  0  0  0  0  0
  -11.4233  -21.9396   30.9622 C   0  0  0  0  0  0  0  0  0  0  0  0
  -11.6063  -22.0974   29.5914 C   0  0  0  0  0  0  0  0  0  0  0  0
  -11.5130  -23.3580   29.0181 C   0  0  0  0  0  0  0  0  0  0  0  0
  -12.1465  -26.5095   28.4846 C   0  0  0  0  0  0  0  0  0  0  0  0
  -13.1590  -25.9833   27.5215 C   0  0  0  0  0  0  0  0  0  0  0  0
  -12.6490  -25.1144   26.4605 C   0  0  0  0  0  0  0  0  0  0  0  0
  -11.3057  -24.9756   26.0589 C   0  0  0  0  0  0  0  0  0  0  0  0
  -11.2474  -23.9573   25.1524 C   0  0  0  0  0  0  0  0  0  0  0  0
  -12.4943  -23.3971   25.0697 N   0  0  0  0  0  0  0  0  0  0  0  0
  -12.8741  -22.2188   24.4671 C   0  0  0  0  0  0  0  0  0  0  0  0
  -14.1785  -21.9380   24.4378 C   0  0  0  0  0  0  0  0  0  0  0  0
  -15.1882  -22.8787   24.8818 C   0  0  0  0  0  0  0  0  0  0  0  0
  -16.5980  -22.3721   24.6642 C   0  0  0  0  0  0  0  0  0  0  0  0
  -17.6382  -23.2767   25.0846 N   0  0  0  0  0  0  0  0  0  0  0  0
  -14.7929  -24.0008   25.5201 C   0  0  0  0  0  0  0  0  0  0  0  0
  -13.3963  -24.2440   25.6986 C   0  0  0  0  0  0  0  0  0  0  0  0
  -14.0394  -28.6582   28.4995 H   0  0  0  0  0  0  0  0  0  0  0  0
  -12.6541  -29.5098   27.7865 H   0  0  0  0  0  0  0  0  0  0  0  0
  -13.0276  -29.6789   29.5148 H   0  0  0  0  0  0  0  0  0  0  0  0
  -10.9112  -28.5926   30.5455 H   0  0  0  0  0  0  0  0  0  0  0  0
  -10.7302  -25.1036   31.8336 H   0  0  0  0  0  0  0  0  0  0  0  0
  -11.0252  -22.9117   32.8322 H   0  0  0  0  0  0  0  0  0  0  0  0
  -11.4952  -20.9873   31.4530 H   0  0  0  0  0  0  0  0  0  0  0  0
  -11.8669  -21.2482   28.9729 H   0  0  0  0  0  0  0  0  0  0  0  0
  -11.6911  -23.4185   27.9623 H   0  0  0  0  0  0  0  0  0  0  0  0
  -13.6916  -26.8150   27.0521 H   0  0  0  0  0  0  0  0  0  0  0  0
  -13.9213  -25.4321   28.0792 H   0  0  0  0  0  0  0  0  0  0  0  0
  -10.4845  -25.5520   26.4491 H   0  0  0  0  0  0  0  0  0  0  0  0
  -10.4302  -23.5896   24.5494 H   0  0  0  0  0  0  0  0  0  0  0  0
  -12.0983  -21.5535   24.1090 H   0  0  0  0  0  0  0  0  0  0  0  0
  -14.5592  -20.9858   24.1357 H   0  0  0  0  0  0  0  0  0  0  0  0
  -16.7748  -22.1372   23.6129 H   0  0  0  0  0  0  0  0  0  0  0  0
  -16.7421  -21.4266   25.1964 H   0  0  0  0  0  0  0  0  0  0  0  0
  -18.5516  -22.8463   24.9416 H   0  0  0  0  0  0  0  0  0  0  0  0
  -17.6325  -24.1234   24.5182 H   0  0  0  0  0  0  0  0  0  0  0  0
  -15.5125  -24.7011   25.9321 H   0  0  0  0  0  0  0  0  0  0  0  0
  1  2  1  0
  2  3  1  0
  3  4  1  0
  4  5  2  0
  5  6  1  0
  6  7  2  0
  7  8  1  0
  8  9  2  0
  9 10  1  0
 10 11  2  0
  5 12  1  0
 12 13  1  0
 13 14  1  0
 14 15  1  0
 15 16  2  0
 16 17  1  0
 17 18  1  0
 18 19  2  0
 19 20  1  0
 20 21  1  0
 21 22  1  0
 20 23  2  0
 23 24  1  0
 12  2  2  0
 24 14  2  0
 11  6  1  0
 24 17  1  0
  1 25  1  0
  1 26  1  0
  1 27  1  0
  3 28  1  0
  7 29  1  0
  8 30  1  0
  9 31  1  0
 10 32  1  0
 11 33  1  0
 13 34  1  0
 13 35  1  0
 15 36  1  0
 16 37  1  0
 18 38  1  0
 19 39  1  0
 21 40  1  0
 21 41  1  0
 22 42  1  0
 22 43  1  0
 23 44  1  0
M  END
>  <Energy>  (987) 
84.022354909192217

>  <compound_id>  (987) 
2257

>  <target_id>  (987) 
1

>  <reference_id>  (987) 
42

>  <inspiration_ids>  (987) 
[42, 173]

>  <energy_score>  (987) 
-5.839636712701406

>  <distance_score>  (987) 
1.7833911408126533

>  <path>  (987) 
/opt/xchem-fragalysis-2/maxwin/BulkDock/SCRATCH/505732/C2257-P42/C2257-P42.minimised.mol

>  <scratch_subdir>  (987) 
/opt/xchem-fragalysis-2/maxwin/BulkDock/SCRATCH/505732/C2257-P42

>  <fragmenstein_runtime>  (987) 
9.65947961807251

>  <fragmenstein_outcome>  (987) 
too moved

>  <fragmenstein_mode>  (987) 
expansion

>  <fragmenstein_error>  (987) 


$$$$
C2257-P173
     RDKit          3D

 44 47  0  0  0  0  0  0  0  0999 V2000
  -10.7690  -27.4163   25.6772 C   0  0  0  0  0  0  0  0  0  0  0  0
  -10.8834  -26.2368   26.5398 C   0  0  0  0  0  0  0  0  0  0  0  0
   -9.8582  -25.4758   27.0286 N   0  0  0  0  0  0  0  0  0  0  0  0
  -10.2901  -24.3578   27.6406 N   0  0  0  0  0  0  0  0  0  0  0  0
  -11.6167  -24.5219   27.7874 C   0  0  0  0  0  0  0  0  0  0  0  0
  -12.4130  -23.7627   28.7576 C   0  0  0  0  0  0  0  0  0  0  0  0
  -11.9303  -22.5682   29.2636 C   0  0  0  0  0  0  0  0  0  0  0  0
  -12.3637  -22.1093   30.5009 C   0  0  0  0  0  0  0  0  0  0  0  0
  -13.3970  -22.7422   31.1665 C   0  0  0  0  0  0  0  0  0  0  0  0
  -14.0066  -23.8389   30.5875 C   0  0  0  0  0  0  0  0  0  0  0  0
  -13.5155  -24.3508   29.3942 C   0  0  0  0  0  0  0  0  0  0  0  0
  -12.0269  -25.5969   26.9572 C   0  0  0  0  0  0  0  0  0  0  0  0
  -13.3532  -25.7435   26.3596 C   0  0  0  0  0  0  0  0  0  0  0  0
  -13.4920  -24.6091   25.4139 C   0  0  0  0  0  0  0  0  0  0  0  0
  -12.4625  -23.6554   25.0776 C   0  0  0  0  0  0  0  0  0  0  0  0
  -12.9614  -22.7734   24.1691 C   0  0  0  0  0  0  0  0  0  0  0  0
  -14.2990  -22.9848   24.1931 N   0  0  0  0  0  0  0  0  0  0  0  0
  -15.2532  -22.0652   23.8990 C   0  0  0  0  0  0  0  0  0  0  0  0
  -16.5322  -22.3896   23.8564 C   0  0  0  0  0  0  0  0  0  0  0  0
  -16.8930  -23.7386   24.2318 C   0  0  0  0  0  0  0  0  0  0  0  0
  -18.3550  -23.9864   24.2193 C   0  0  0  0  0  0  0  0  0  0  0  0
  -19.1038  -22.9876   24.9691 N   0  0  0  0  0  0  0  0  0  0  0  0
  -15.9681  -24.6285   24.6585 C   0  0  0  0  0  0  0  0  0  0  0  0
  -14.6121  -24.2126   24.7321 C   0  0  0  0  0  0  0  0  0  0  0  0
   -9.7813  -27.4843   25.2327 H   0  0  0  0  0  0  0  0  0  0  0  0
  -10.9824  -28.3209   26.2538 H   0  0  0  0  0  0  0  0  0  0  0  0
  -11.4975  -27.3855   24.8624 H   0  0  0  0  0  0  0  0  0  0  0  0
   -8.8529  -25.6118   26.9612 H   0  0  0  0  0  0  0  0  0  0  0  0
  -11.1111  -22.0680   28.7567 H   0  0  0  0  0  0  0  0  0  0  0  0
  -11.8329  -21.3041   30.9913 H   0  0  0  0  0  0  0  0  0  0  0  0
  -13.7030  -22.4050   32.1529 H   0  0  0  0  0  0  0  0  0  0  0  0
  -14.8154  -24.3481   31.1062 H   0  0  0  0  0  0  0  0  0  0  0  0
  -13.9390  -25.2909   29.0639 H   0  0  0  0  0  0  0  0  0  0  0  0
  -13.4543  -26.6881   25.8136 H   0  0  0  0  0  0  0  0  0  0  0  0
  -14.1648  -25.7335   27.0877 H   0  0  0  0  0  0  0  0  0  0  0  0
  -11.4290  -23.6614   25.3806 H   0  0  0  0  0  0  0  0  0  0  0  0
  -12.4920  -21.9283   23.6881 H   0  0  0  0  0  0  0  0  0  0  0  0
  -14.8979  -21.0650   23.8751 H   0  0  0  0  0  0  0  0  0  0  0  0
  -17.2801  -21.6237   23.6892 H   0  0  0  0  0  0  0  0  0  0  0  0
  -18.5830  -24.9701   24.6459 H   0  0  0  0  0  0  0  0  0  0  0  0
  -18.7228  -24.0082   23.1865 H   0  0  0  0  0  0  0  0  0  0  0  0
  -18.6706  -22.8520   25.8865 H   0  0  0  0  0  0  0  0  0  0  0  0
  -19.0926  -22.0820   24.5084 H   0  0  0  0  0  0  0  0  0  0  0  0
  -16.2470  -25.6179   25.0047 H   0  0  0  0  0  0  0  0  0  0  0  0
  1  2  1  0
  2  3  1  0
  3  4  1  0
  4  5  2  0
  5  6  1  0
  6  7  2  0
  7  8  1  0
  8  9  2  0
  9 10  1  0
 10 11  2  0
  5 12  1  0
 12 13  1  0
 13 14  1  0
 14 15  1  0
 15 16  2  0
 16 17  1  0
 17 18  1  0
 18 19  2  0
 19 20  1  0
 20 21  1  0
 21 22  1  0
 20 23  2  0
 23 24  1  0
 12  2  2  0
 24 14  2  0
 11  6  1  0
 24 17  1  0
  1 25  1  0
  1 26  1  0
  1 27  1  0
  3 28  1  0
  7 29  1  0
  8 30  1  0
  9 31  1  0
 10 32  1  0
 11 33  1  0
 13 34  1  0
 13 35  1  0
 15 36  1  0
 16 37  1  0
 18 38  1  0
 19 39  1  0
 21 40  1  0
 21 41  1  0
 22 42  1  0
 22 43  1  0
 23 44  1  0
M  END
>  <Energy>  (988) 
100.42575850868708

>  <compound_id>  (988) 
2257

>  <target_id>  (988) 
1

>  <reference_id>  (988) 
173

>  <inspiration_ids>  (988) 
[42, 173]

>  <energy_score>  (988) 
10.563766886792564

>  <distance_score>  (988) 
2.5499115727944957

>  <path>  (988) 
/opt/xchem-fragalysis-2/maxwin/BulkDock/SCRATCH/505732/C2257-P173/C2257-P173.minimised.mol

>  <scratch_subdir>  (988) 
/opt/xchem-fragalysis-2/maxwin/BulkDock/SCRATCH/505732/C2257-P173

>  <fragmenstein_runtime>  (988) 
8.904236078262329

>  <fragmenstein_outcome>  (988) 
too moved

>  <fragmenstein_mode>  (988) 
expansion

>  <fragmenstein_error>  (988) 


$$$$
C2259-P43
     RDKit          3D

 41 44  0  0  0  0  0  0  0  0999 V2000
  -11.0888    2.7455    9.5730 N   0  0  0  0  0  0  0  0  0  0  0  0
  -11.9925    1.6081    9.7319 C   0  0  0  0  0  0  0  0  0  0  0  0
  -12.7372    1.6117   11.0469 C   0  0  0  0  0  0  0  0  0  0  0  0
  -11.9037    1.5256   12.2409 C   0  0  0  0  0  0  0  0  0  0  0  0
  -12.4790    1.3171   13.4281 C   0  0  0  0  0  0  0  0  0  0  0  0
  -13.8553    1.2602   13.5165 N   0  0  0  0  0  0  0  0  0  0  0  0
  -14.5931    1.0003   14.6337 C   0  0  0  0  0  0  0  0  0  0  0  0
  -15.9117    1.0958   14.3071 C   0  0  0  0  0  0  0  0  0  0  0  0
  -16.0061    1.5690   12.9782 C   0  0  0  0  0  0  0  0  0  0  0  0
  -17.2774    2.0729   12.3633 C   0  0  0  0  0  0  0  0  0  0  0  0
  -18.6156    1.5055   12.9338 C   0  0  0  0  0  0  0  0  0  0  0  0
  -19.2602    1.8575   14.2876 C   0  0  0  0  0  0  0  0  0  0  0  0
  -20.6258    1.2781   14.5396 C   0  0  0  0  0  0  0  0  0  0  0  0
  -21.0752    0.5487   13.5093 O   0  0  0  0  0  0  0  0  0  0  0  0
  -21.4012    1.3734   15.5617 N   0  0  0  0  0  0  0  0  0  0  0  0
  -20.9134    2.1074   16.5998 C   0  0  0  0  0  0  0  0  0  0  0  0
  -21.4754    2.3771   17.7626 N   0  0  0  0  0  0  0  0  0  0  0  0
  -20.5782    3.1383   18.4477 C   0  0  0  0  0  0  0  0  0  0  0  0
  -19.4616    3.3670   17.6845 C   0  0  0  0  0  0  0  0  0  0  0  0
  -19.6660    2.7002   16.5009 N   0  0  0  0  0  0  0  0  0  0  0  0
  -18.8499    2.5866   15.3541 C   0  0  0  0  0  0  0  0  0  0  0  0
  -17.6400    3.2394   15.4058 O   0  0  0  0  0  0  0  0  0  0  0  0
  -14.7170    1.4848   12.4477 C   0  0  0  0  0  0  0  0  0  0  0  0
  -14.0918    1.6242   11.1599 C   0  0  0  0  0  0  0  0  0  0  0  0
  -10.3192    2.6678   10.2345 H   0  0  0  0  0  0  0  0  0  0  0  0
  -10.6597    2.6965    8.6509 H   0  0  0  0  0  0  0  0  0  0  0  0
  -11.4216    0.6763    9.6367 H   0  0  0  0  0  0  0  0  0  0  0  0
  -12.7066    1.6223    8.9001 H   0  0  0  0  0  0  0  0  0  0  0  0
  -10.8336    1.6364   12.1514 H   0  0  0  0  0  0  0  0  0  0  0  0
  -11.9297    1.2245   14.3505 H   0  0  0  0  0  0  0  0  0  0  0  0
  -14.1099    0.7381   15.5548 H   0  0  0  0  0  0  0  0  0  0  0  0
  -16.7261    0.9288   14.9856 H   0  0  0  0  0  0  0  0  0  0  0  0
  -17.2501    1.8171   11.2953 H   0  0  0  0  0  0  0  0  0  0  0  0
  -17.2926    3.1667   12.4104 H   0  0  0  0  0  0  0  0  0  0  0  0
  -18.5365    0.4095   12.8965 H   0  0  0  0  0  0  0  0  0  0  0  0
  -19.3641    1.7833   12.1771 H   0  0  0  0  0  0  0  0  0  0  0  0
  -21.9448    0.1950   13.7694 H   0  0  0  0  0  0  0  0  0  0  0  0
  -20.7827    3.4889   19.4506 H   0  0  0  0  0  0  0  0  0  0  0  0
  -18.5644    3.9271   17.8880 H   0  0  0  0  0  0  0  0  0  0  0  0
  -17.2058    3.2231   14.5344 H   0  0  0  0  0  0  0  0  0  0  0  0
  -14.7226    1.6885   10.2793 H   0  0  0  0  0  0  0  0  0  0  0  0
  1  2  1  0
  2  3  1  0
  3  4  1  0
  4  5  2  0
  5  6  1  0
  6  7  1  0
  7  8  2  0
  8  9  1  0
  9 10  1  0
 10 11  1  0
 11 12  1  0
 12 13  1  0
 13 14  1  0
 13 15  2  0
 15 16  1  0
 16 17  2  0
 17 18  1  0
 18 19  2  0
 19 20  1  0
 20 21  1  0
 21 22  1  0
  9 23  2  0
 23 24  1  0
 24  3  2  0
 23  6  1  0
 21 12  2  0
 20 16  1  0
  1 25  1  0
  1 26  1  0
  2 27  1  0
  2 28  1  0
  4 29  1  0
  5 30  1  0
  7 31  1  0
  8 32  1  0
 10 33  1  0
 10 34  1  0
 11 35  1  0
 11 36  1  0
 14 37  1  0
 18 38  1  0
 19 39  1  0
 22 40  1  0
 24 41  1  0
M  END
>  <Energy>  (989) 
32.022887544146386

>  <compound_id>  (989) 
2259

>  <target_id>  (989) 
1

>  <reference_id>  (989) 
43

>  <inspiration_ids>  (989) 
[43, 126]

>  <energy_score>  (989) 
-48.857174049950935

>  <distance_score>  (989) 
1.3729618811783968

>  <path>  (989) 
/opt/xchem-fragalysis-2/maxwin/BulkDock/SCRATCH/505732/C2259-P43/C2259-P43.minimised.mol

>  <scratch_subdir>  (989) 
/opt/xchem-fragalysis-2/maxwin/BulkDock/SCRATCH/505732/C2259-P43

>  <fragmenstein_runtime>  (989) 
12.18546462059021

>  <fragmenstein_outcome>  (989) 
too moved

>  <fragmenstein_mode>  (989) 
expansion

>  <fragmenstein_error>  (989) 


$$$$
C2259-P126
     RDKit          3D

 41 44  0  0  0  0  0  0  0  0999 V2000
  -11.1449    2.5870    9.3563 N   0  0  0  0  0  0  0  0  0  0  0  0
  -12.1008    1.4936    9.5334 C   0  0  0  0  0  0  0  0  0  0  0  0
  -12.7839    1.5322   10.8788 C   0  0  0  0  0  0  0  0  0  0  0  0
  -11.8840    1.6480   12.0182 C   0  0  0  0  0  0  0  0  0  0  0  0
  -12.3653    1.5127   13.2557 C   0  0  0  0  0  0  0  0  0  0  0  0
  -13.7241    1.3508   13.4357 N   0  0  0  0  0  0  0  0  0  0  0  0
  -14.3784    1.1720   14.6178 C   0  0  0  0  0  0  0  0  0  0  0  0
  -15.7166    1.2234   14.3798 C   0  0  0  0  0  0  0  0  0  0  0  0
  -15.9179    1.4681   13.0068 C   0  0  0  0  0  0  0  0  0  0  0  0
  -17.2489    1.8083   12.4207 C   0  0  0  0  0  0  0  0  0  0  0  0
  -18.5111    1.1817   13.0970 C   0  0  0  0  0  0  0  0  0  0  0  0
  -19.1786    1.6161   14.4185 C   0  0  0  0  0  0  0  0  0  0  0  0
  -20.5075    0.9737   14.7257 C   0  0  0  0  0  0  0  0  0  0  0  0
  -20.9021    0.1216   13.7696 O   0  0  0  0  0  0  0  0  0  0  0  0
  -21.2950    1.1152   15.7328 N   0  0  0  0  0  0  0  0  0  0  0  0
  -20.8582    1.9650   16.7028 C   0  0  0  0  0  0  0  0  0  0  0  0
  -21.4373    2.2939   17.8420 N   0  0  0  0  0  0  0  0  0  0  0  0
  -20.6006    3.1797   18.4489 C   0  0  0  0  0  0  0  0  0  0  0  0
  -19.4996    3.4150   17.6648 C   0  0  0  0  0  0  0  0  0  0  0  0
  -19.6536    2.6306   16.5473 N   0  0  0  0  0  0  0  0  0  0  0  0
  -18.8252    2.4697   15.4128 C   0  0  0  0  0  0  0  0  0  0  0  0
  -17.6694    3.2196   15.3933 O   0  0  0  0  0  0  0  0  0  0  0  0
  -14.6604    1.3967   12.4062 C   0  0  0  0  0  0  0  0  0  0  0  0
  -14.1247    1.4397   11.0727 C   0  0  0  0  0  0  0  0  0  0  0  0
  -10.7470    2.5333    8.4211 H   0  0  0  0  0  0  0  0  0  0  0  0
  -11.6455    3.4730    9.4076 H   0  0  0  0  0  0  0  0  0  0  0  0
  -11.5681    0.5408    9.4300 H   0  0  0  0  0  0  0  0  0  0  0  0
  -12.8415    1.5367    8.7265 H   0  0  0  0  0  0  0  0  0  0  0  0
  -10.8384    1.8533   11.8291 H   0  0  0  0  0  0  0  0  0  0  0  0
  -11.7518    1.5763   14.1406 H   0  0  0  0  0  0  0  0  0  0  0  0
  -13.8266    1.0485   15.5263 H   0  0  0  0  0  0  0  0  0  0  0  0
  -16.4754    1.1690   15.1339 H   0  0  0  0  0  0  0  0  0  0  0  0
  -17.2465    1.4679   11.3762 H   0  0  0  0  0  0  0  0  0  0  0  0
  -17.3324    2.8963   12.3806 H   0  0  0  0  0  0  0  0  0  0  0  0
  -18.3252    0.1012   13.1798 H   0  0  0  0  0  0  0  0  0  0  0  0
  -19.2935    1.2984   12.3325 H   0  0  0  0  0  0  0  0  0  0  0  0
  -21.7447   -0.2655   14.0686 H   0  0  0  0  0  0  0  0  0  0  0  0
  -20.8347    3.6073   19.4149 H   0  0  0  0  0  0  0  0  0  0  0  0
  -18.6449    4.0509   17.8160 H   0  0  0  0  0  0  0  0  0  0  0  0
  -17.2790    3.1997   14.5000 H   0  0  0  0  0  0  0  0  0  0  0  0
  -14.8066    1.3579   10.2328 H   0  0  0  0  0  0  0  0  0  0  0  0
  1  2  1  0
  2  3  1  0
  3  4  1  0
  4  5  2  0
  5  6  1  0
  6  7  1  0
  7  8  2  0
  8  9  1  0
  9 10  1  0
 10 11  1  0
 11 12  1  0
 12 13  1  0
 13 14  1  0
 13 15  2  0
 15 16  1  0
 16 17  2  0
 17 18  1  0
 18 19  2  0
 19 20  1  0
 20 21  1  0
 21 22  1  0
  9 23  2  0
 23 24  1  0
 24  3  2  0
 23  6  1  0
 21 12  2  0
 20 16  1  0
  1 25  1  0
  1 26  1  0
  2 27  1  0
  2 28  1  0
  4 29  1  0
  5 30  1  0
  7 31  1  0
  8 32  1  0
 10 33  1  0
 10 34  1  0
 11 35  1  0
 11 36  1  0
 14 37  1  0
 18 38  1  0
 19 39  1  0
 22 40  1  0
 24 41  1  0
M  END
>  <Energy>  (990) 
31.891100518666647

>  <compound_id>  (990) 
2259

>  <target_id>  (990) 
1

>  <reference_id>  (990) 
126

>  <inspiration_ids>  (990) 
[43, 126]

>  <energy_score>  (990) 
-48.98896107543047

>  <distance_score>  (990) 
1.452934439511468

>  <path>  (990) 
/opt/xchem-fragalysis-2/maxwin/BulkDock/SCRATCH/505732/C2259-P126/C2259-P126.minimised.mol

>  <scratch_subdir>  (990) 
/opt/xchem-fragalysis-2/maxwin/BulkDock/SCRATCH/505732/C2259-P126

>  <fragmenstein_runtime>  (990) 
13.243402004241943

>  <fragmenstein_outcome>  (990) 
too moved

>  <fragmenstein_mode>  (990) 
expansion

>  <fragmenstein_error>  (990) 


$$$$
C2263-P43
     RDKit          3D

 59 62  0  0  0  0  0  0  0  0999 V2000
  -21.6204    3.3360   16.8624 C   0  0  0  0  0  0  0  0  0  0  0  0
  -21.9112    3.5696   18.2760 N   0  0  0  0  0  0  0  0  0  0  0  0
  -23.3391    3.8306   18.4360 C   0  0  0  0  0  0  0  0  0  0  0  0
  -21.1200    2.5391   19.3808 S   0  0  0  0  0  0  0  0  0  0  0  0
  -19.7356    2.6631   18.9902 O   0  0  0  0  0  0  0  0  0  0  0  0
  -22.0326    1.3148   19.3689 N   0  0  0  0  0  0  0  0  0  0  0  0
  -21.6734    0.0227   18.7842 C   0  0  0  0  0  0  0  0  0  0  0  0
  -22.8998   -0.8990   19.0296 C   0  0  0  0  0  0  0  0  0  0  0  0
  -22.6675   -2.3516   18.9233 N   0  0  0  0  0  0  0  0  0  0  0  0
  -23.8986   -3.0897   19.2599 C   0  0  0  0  0  0  0  0  0  0  0  0
  -24.9056   -3.0349   18.1351 C   0  0  0  0  0  0  0  0  0  0  0  0
  -24.5425   -3.7534   16.9186 C   0  0  0  0  0  0  0  0  0  0  0  0
  -25.3304   -3.6469   15.8405 C   0  0  0  0  0  0  0  0  0  0  0  0
  -26.4803   -2.8728   15.9102 N   0  0  0  0  0  0  0  0  0  0  0  0
  -27.4375   -2.6465   14.9547 C   0  0  0  0  0  0  0  0  0  0  0  0
  -28.3369   -1.7841   15.5344 C   0  0  0  0  0  0  0  0  0  0  0  0
  -27.9752   -1.4922   16.8245 N   0  0  0  0  0  0  0  0  0  0  0  0
  -26.8761   -2.1838   17.0441 C   0  0  0  0  0  0  0  0  0  0  0  0
  -26.0494   -2.3132   18.1936 C   0  0  0  0  0  0  0  0  0  0  0  0
  -21.3049    3.1739   21.0204 C   0  0  0  0  0  0  0  0  0  0  0  0
  -21.0203    4.6475   21.1854 C   0  0  0  0  0  0  0  0  0  0  0  0
  -19.9429    4.6885   22.2532 C   0  0  0  0  0  0  0  0  0  0  0  0
  -20.0362    3.4385   23.0171 N   0  0  0  0  0  0  0  0  0  0  0  0
  -21.0463    3.5043   24.0711 C   0  0  0  0  0  0  0  0  0  0  0  0
  -20.4137    4.0957   25.2771 C   0  0  0  0  0  0  0  0  0  0  0  0
  -20.5206    5.3842   25.7507 C   0  0  0  0  0  0  0  0  0  0  0  0
  -19.7561    5.5387   26.8595 O   0  0  0  0  0  0  0  0  0  0  0  0
  -19.1312    4.3381   27.1541 N   0  0  0  0  0  0  0  0  0  0  0  0
  -19.5538    3.4872   26.2165 C   0  0  0  0  0  0  0  0  0  0  0  0
  -19.0164    1.6838   26.1654 Br  0  0  0  0  0  0  0  0  0  0  0  0
  -20.3621    2.4549   21.9746 C   0  0  0  0  0  0  0  0  0  0  0  0
  -22.0407    2.3861   16.5148 H   0  0  0  0  0  0  0  0  0  0  0  0
  -20.5417    3.3211   16.6742 H   0  0  0  0  0  0  0  0  0  0  0  0
  -22.0253    4.1410   16.2388 H   0  0  0  0  0  0  0  0  0  0  0  0
  -23.5718    4.1037   19.4702 H   0  0  0  0  0  0  0  0  0  0  0  0
  -23.9491    2.9611   18.1677 H   0  0  0  0  0  0  0  0  0  0  0  0
  -23.6547    4.6778   17.8167 H   0  0  0  0  0  0  0  0  0  0  0  0
  -21.4716    0.1105   17.7133 H   0  0  0  0  0  0  0  0  0  0  0  0
  -20.7960   -0.3707   19.2986 H   0  0  0  0  0  0  0  0  0  0  0  0
  -23.2885   -0.6960   20.0379 H   0  0  0  0  0  0  0  0  0  0  0  0
  -23.6803   -0.5903   18.3228 H   0  0  0  0  0  0  0  0  0  0  0  0
  -21.9303   -2.6118   19.5760 H   0  0  0  0  0  0  0  0  0  0  0  0
  -23.6322   -4.1389   19.4417 H   0  0  0  0  0  0  0  0  0  0  0  0
  -24.3264   -2.7276   20.2033 H   0  0  0  0  0  0  0  0  0  0  0  0
  -23.6243   -4.3312   16.8936 H   0  0  0  0  0  0  0  0  0  0  0  0
  -25.1153   -4.1396   14.9012 H   0  0  0  0  0  0  0  0  0  0  0  0
  -27.3872   -3.0905   13.9718 H   0  0  0  0  0  0  0  0  0  0  0  0
  -29.2276   -1.3572   15.0916 H   0  0  0  0  0  0  0  0  0  0  0  0
  -26.3266   -1.7534   19.0796 H   0  0  0  0  0  0  0  0  0  0  0  0
  -22.3448    2.9909   21.3217 H   0  0  0  0  0  0  0  0  0  0  0  0
  -21.9211    5.1635   21.5383 H   0  0  0  0  0  0  0  0  0  0  0  0
  -20.7060    5.1349   20.2612 H   0  0  0  0  0  0  0  0  0  0  0  0
  -18.9679    4.7020   21.7544 H   0  0  0  0  0  0  0  0  0  0  0  0
  -20.0056    5.5849   22.8765 H   0  0  0  0  0  0  0  0  0  0  0  0
  -21.9375    4.0716   23.7751 H   0  0  0  0  0  0  0  0  0  0  0  0
  -21.4000    2.4991   24.3337 H   0  0  0  0  0  0  0  0  0  0  0  0
  -21.0544    6.2659   25.4271 H   0  0  0  0  0  0  0  0  0  0  0  0
  -19.4247    2.1590   21.4874 H   0  0  0  0  0  0  0  0  0  0  0  0
  -20.7987    1.5318   22.3734 H   0  0  0  0  0  0  0  0  0  0  0  0
  1  2  1  0
  2  3  1  0
  2  4  1  0
  4  5  2  0
  4  6  2  0
  6  7  1  0
  7  8  1  0
  8  9  1  0
  9 10  1  0
 10 11  1  0
 11 12  1  0
 12 13  2  0
 13 14  1  0
 14 15  1  0
 15 16  2  0
 16 17  1  0
 17 18  2  0
 18 19  1  0
  4 20  1  0
 20 21  1  0
 21 22  1  0
 22 23  1  0
 23 24  1  0
 24 25  1  0
 25 26  2  0
 26 27  1  0
 27 28  1  0
 28 29  2  0
 29 30  1  0
 23 31  1  0
 19 11  2  0
 31 20  1  0
 18 14  1  0
 29 25  1  0
  1 32  1  0
  1 33  1  0
  1 34  1  0
  3 35  1  0
  3 36  1  0
  3 37  1  0
  7 38  1  0
  7 39  1  0
  8 40  1  0
  8 41  1  0
  9 42  1  0
 10 43  1  0
 10 44  1  0
 12 45  1  0
 13 46  1  0
 15 47  1  0
 16 48  1  0
 19 49  1  0
 20 50  1  0
 21 51  1  0
 21 52  1  0
 22 53  1  0
 22 54  1  0
 24 55  1  0
 24 56  1  0
 26 57  1  0
 31 58  1  0
 31 59  1  0
M  END
>  <Energy>  (991) 
-32.916158327136529

>  <compound_id>  (991) 
2263

>  <target_id>  (991) 
1

>  <reference_id>  (991) 
43

>  <inspiration_ids>  (991) 
[43, 174]

>  <energy_score>  (991) 
-68.50742561110205

>  <distance_score>  (991) 
1.7971258743200287

>  <path>  (991) 
/opt/xchem-fragalysis-2/maxwin/BulkDock/SCRATCH/505732/C2263-P43/C2263-P43.minimised.mol

>  <scratch_subdir>  (991) 
/opt/xchem-fragalysis-2/maxwin/BulkDock/SCRATCH/505732/C2263-P43

>  <fragmenstein_runtime>  (991) 
4.6829798221588135

>  <fragmenstein_outcome>  (991) 
too moved

>  <fragmenstein_mode>  (991) 
expansion

>  <fragmenstein_error>  (991) 


$$$$
C2263-P174
     RDKit          3D

 59 62  0  0  0  0  0  0  0  0999 V2000
  -21.2665    1.2812   17.5376 C   0  0  0  0  0  0  0  0  0  0  0  0
  -21.9716    2.2355   18.3829 N   0  0  0  0  0  0  0  0  0  0  0  0
  -23.2337    2.5912   17.7257 C   0  0  0  0  0  0  0  0  0  0  0  0
  -21.9559    2.0341   20.0805 S   0  0  0  0  0  0  0  0  0  0  0  0
  -23.0813    2.8449   20.4783 O   0  0  0  0  0  0  0  0  0  0  0  0
  -21.8488    0.5006   20.2582 N   0  0  0  0  0  0  0  0  0  0  0  0
  -23.0559   -0.3284   19.9926 C   0  0  0  0  0  0  0  0  0  0  0  0
  -23.8888   -0.5590   21.2703 C   0  0  0  0  0  0  0  0  0  0  0  0
  -25.1904   -1.2330   21.0804 N   0  0  0  0  0  0  0  0  0  0  0  0
  -25.0870   -2.5601   20.4646 C   0  0  0  0  0  0  0  0  0  0  0  0
  -25.5260   -2.6172   19.0106 C   0  0  0  0  0  0  0  0  0  0  0  0
  -24.9911   -3.7296   18.2240 C   0  0  0  0  0  0  0  0  0  0  0  0
  -25.3583   -3.8598   16.9398 C   0  0  0  0  0  0  0  0  0  0  0  0
  -26.2440   -2.9428   16.3852 N   0  0  0  0  0  0  0  0  0  0  0  0
  -26.8230   -2.9268   15.1412 C   0  0  0  0  0  0  0  0  0  0  0  0
  -27.6192   -1.8056   15.1202 C   0  0  0  0  0  0  0  0  0  0  0  0
  -27.5537   -1.1355   16.3140 N   0  0  0  0  0  0  0  0  0  0  0  0
  -26.7512   -1.8538   17.0729 C   0  0  0  0  0  0  0  0  0  0  0  0
  -26.3580   -1.7176   18.4314 C   0  0  0  0  0  0  0  0  0  0  0  0
  -20.5452    2.7859   20.8374 C   0  0  0  0  0  0  0  0  0  0  0  0
  -20.8304    4.1790   21.3871 C   0  0  0  0  0  0  0  0  0  0  0  0
  -19.7522    4.3320   22.4329 C   0  0  0  0  0  0  0  0  0  0  0  0
  -19.7215    3.0389   23.1230 N   0  0  0  0  0  0  0  0  0  0  0  0
  -20.6596    3.0164   24.2524 C   0  0  0  0  0  0  0  0  0  0  0  0
  -20.0125    3.6425   25.4337 C   0  0  0  0  0  0  0  0  0  0  0  0
  -20.2107    4.9033   25.9497 C   0  0  0  0  0  0  0  0  0  0  0  0
  -19.4184    5.0950   27.0332 O   0  0  0  0  0  0  0  0  0  0  0  0
  -18.6819    3.9450   27.2700 N   0  0  0  0  0  0  0  0  0  0  0  0
  -19.0625    3.0891   26.3175 C   0  0  0  0  0  0  0  0  0  0  0  0
  -18.3838    1.3396   26.1815 Br  0  0  0  0  0  0  0  0  0  0  0  0
  -20.0892    2.0362   22.0926 C   0  0  0  0  0  0  0  0  0  0  0  0
  -21.8374    0.3580   17.3898 H   0  0  0  0  0  0  0  0  0  0  0  0
  -20.3240    1.0187   18.0076 H   0  0  0  0  0  0  0  0  0  0  0  0
  -21.0357    1.7024   16.5530 H   0  0  0  0  0  0  0  0  0  0  0  0
  -23.9731    1.7883   17.8008 H   0  0  0  0  0  0  0  0  0  0  0  0
  -23.0861    2.8114   16.6627 H   0  0  0  0  0  0  0  0  0  0  0  0
  -23.6660    3.4958   18.1652 H   0  0  0  0  0  0  0  0  0  0  0  0
  -23.6817    0.1105   19.2116 H   0  0  0  0  0  0  0  0  0  0  0  0
  -22.7048   -1.2927   19.6079 H   0  0  0  0  0  0  0  0  0  0  0  0
  -23.2914   -1.1217   21.9994 H   0  0  0  0  0  0  0  0  0  0  0  0
  -24.0994    0.4108   21.7371 H   0  0  0  0  0  0  0  0  0  0  0  0
  -25.6258   -1.3334   21.9980 H   0  0  0  0  0  0  0  0  0  0  0  0
  -25.7422   -3.2433   21.0216 H   0  0  0  0  0  0  0  0  0  0  0  0
  -24.0743   -2.9653   20.5868 H   0  0  0  0  0  0  0  0  0  0  0  0
  -24.3223   -4.4441   18.6939 H   0  0  0  0  0  0  0  0  0  0  0  0
  -25.0212   -4.6718   16.3087 H   0  0  0  0  0  0  0  0  0  0  0  0
  -26.6213   -3.6876   14.4022 H   0  0  0  0  0  0  0  0  0  0  0  0
  -28.2351   -1.4435   14.3071 H   0  0  0  0  0  0  0  0  0  0  0  0
  -26.7694   -0.8836   18.9905 H   0  0  0  0  0  0  0  0  0  0  0  0
  -19.7248    2.7876   20.1141 H   0  0  0  0  0  0  0  0  0  0  0  0
  -21.8091    4.2450   21.8762 H   0  0  0  0  0  0  0  0  0  0  0  0
  -20.8209    4.9648   20.6340 H   0  0  0  0  0  0  0  0  0  0  0  0
  -18.7782    4.4839   21.9558 H   0  0  0  0  0  0  0  0  0  0  0  0
  -19.9311    5.1843   23.0936 H   0  0  0  0  0  0  0  0  0  0  0  0
  -20.9084    1.9830   24.5271 H   0  0  0  0  0  0  0  0  0  0  0  0
  -21.6152    3.5031   24.0221 H   0  0  0  0  0  0  0  0  0  0  0  0
  -20.8372    5.7399   25.6764 H   0  0  0  0  0  0  0  0  0  0  0  0
  -19.1993    1.4397   21.8568 H   0  0  0  0  0  0  0  0  0  0  0  0
  -20.8377    1.3326   22.4725 H   0  0  0  0  0  0  0  0  0  0  0  0
  1  2  1  0
  2  3  1  0
  2  4  1  0
  4  5  2  0
  4  6  2  0
  6  7  1  0
  7  8  1  0
  8  9  1  0
  9 10  1  0
 10 11  1  0
 11 12  1  0
 12 13  2  0
 13 14  1  0
 14 15  1  0
 15 16  2  0
 16 17  1  0
 17 18  2  0
 18 19  1  0
  4 20  1  0
 20 21  1  0
 21 22  1  0
 22 23  1  0
 23 24  1  0
 24 25  1  0
 25 26  2  0
 26 27  1  0
 27 28  1  0
 28 29  2  0
 29 30  1  0
 23 31  1  0
 19 11  2  0
 31 20  1  0
 18 14  1  0
 29 25  1  0
  1 32  1  0
  1 33  1  0
  1 34  1  0
  3 35  1  0
  3 36  1  0
  3 37  1  0
  7 38  1  0
  7 39  1  0
  8 40  1  0
  8 41  1  0
  9 42  1  0
 10 43  1  0
 10 44  1  0
 12 45  1  0
 13 46  1  0
 15 47  1  0
 16 48  1  0
 19 49  1  0
 20 50  1  0
 21 51  1  0
 21 52  1  0
 22 53  1  0
 22 54  1  0
 24 55  1  0
 24 56  1  0
 26 57  1  0
 31 58  1  0
 31 59  1  0
M  END
>  <Energy>  (992) 
-26.496358604926744

>  <compound_id>  (992) 
2263

>  <target_id>  (992) 
1

>  <reference_id>  (992) 
174

>  <inspiration_ids>  (992) 
[43, 174]

>  <energy_score>  (992) 
-62.08762588889252

>  <distance_score>  (992) 
1.946307786329655

>  <path>  (992) 
/opt/xchem-fragalysis-2/maxwin/BulkDock/SCRATCH/505732/C2263-P174/C2263-P174.minimised.mol

>  <scratch_subdir>  (992) 
/opt/xchem-fragalysis-2/maxwin/BulkDock/SCRATCH/505732/C2263-P174

>  <fragmenstein_runtime>  (992) 
4.68696665763855

>  <fragmenstein_outcome>  (992) 
too moved

>  <fragmenstein_mode>  (992) 
expansion

>  <fragmenstein_error>  (992) 


$$$$
C2266-P44
     RDKit          3D

 58 61  0  0  0  0  0  0  0  0999 V2000
    3.7269    3.0052   30.5126 C   0  0  0  0  0  0  0  0  0  0  0  0
    3.1040    1.6318   30.7604 C   0  0  0  0  0  0  0  0  0  0  0  0
    3.8486    0.5868   30.0830 N   0  0  0  0  0  0  0  0  0  0  0  0
    2.9209   -0.7352   29.6941 S   0  0  0  0  0  0  0  0  0  0  0  0
    1.2642    0.1923   30.0384 C   0  0  0  0  0  0  0  0  0  0  0  0
    1.7319    1.5951   30.2450 N   0  0  0  0  0  0  0  0  0  0  0  0
    0.3541   -0.0392   28.7051 C   0  0  0  0  0  0  0  0  0  0  0  0
   -0.8321    0.8809   28.4523 N   0  0  0  0  0  0  0  0  0  0  0  0
   -1.5646    0.4938   27.2277 C   0  0  0  0  0  0  0  0  0  0  0  0
   -2.5510    1.5246   26.6695 C   0  0  0  0  0  0  0  0  0  0  0  0
   -1.8902    2.8602   26.4139 C   0  0  0  0  0  0  0  0  0  0  0  0
   -1.3285    3.3328   27.7322 C   0  0  0  0  0  0  0  0  0  0  0  0
   -0.3743    2.2942   28.3307 C   0  0  0  0  0  0  0  0  0  0  0  0
    0.0317   -1.4736   28.6008 N   0  0  0  0  0  0  0  0  0  0  0  0
   -0.5695   -2.0882   29.7544 C   0  0  0  0  0  0  0  0  0  0  0  0
   -0.6176   -3.6290   29.6360 C   0  0  0  0  0  0  0  0  0  0  0  0
   -1.0632   -4.1908   30.8876 O   0  0  0  0  0  0  0  0  0  0  0  0
    0.2701   -1.8992   30.9337 N   0  0  0  0  0  0  0  0  0  0  0  0
    0.4973   -0.4832   31.2805 C   0  0  0  0  0  0  0  0  0  0  0  0
    1.3298   -0.4579   32.5910 C   0  0  0  0  0  0  0  0  0  0  0  0
    0.6061   -0.9919   33.8267 C   0  0  0  0  0  0  0  0  0  0  0  0
   -0.7289   -1.3870   33.5746 O   0  0  0  0  0  0  0  0  0  0  0  0
   -1.5129   -0.3946   32.9198 C   0  0  0  0  0  0  0  0  0  0  0  0
   -2.8449   -1.0656   32.5984 C   0  0  0  0  0  0  0  0  0  0  0  0
   -0.8368    0.2009   31.6636 C   0  0  0  0  0  0  0  0  0  0  0  0
    3.1570    3.7872   31.0268 H   0  0  0  0  0  0  0  0  0  0  0  0
    4.7546    3.0385   30.8913 H   0  0  0  0  0  0  0  0  0  0  0  0
    3.7554    3.2579   29.4461 H   0  0  0  0  0  0  0  0  0  0  0  0
    3.1264    1.4572   31.8382 H   0  0  0  0  0  0  0  0  0  0  0  0
    4.2943    0.9618   29.2472 H   0  0  0  0  0  0  0  0  0  0  0  0
    1.8184    1.9811   29.3098 H   0  0  0  0  0  0  0  0  0  0  0  0
    1.0275    0.1494   27.8554 H   0  0  0  0  0  0  0  0  0  0  0  0
   -0.8411    0.2796   26.4429 H   0  0  0  0  0  0  0  0  0  0  0  0
   -2.1348   -0.4219   27.4196 H   0  0  0  0  0  0  0  0  0  0  0  0
   -2.9829    1.1493   25.7424 H   0  0  0  0  0  0  0  0  0  0  0  0
   -3.3796    1.6727   27.3637 H   0  0  0  0  0  0  0  0  0  0  0  0
   -2.6204    3.5801   26.0292 H   0  0  0  0  0  0  0  0  0  0  0  0
   -1.0958    2.7625   25.6653 H   0  0  0  0  0  0  0  0  0  0  0  0
   -0.7984    4.2821   27.5934 H   0  0  0  0  0  0  0  0  0  0  0  0
   -2.1510    3.5324   28.4242 H   0  0  0  0  0  0  0  0  0  0  0  0
   -0.1536    2.6758   29.3293 H   0  0  0  0  0  0  0  0  0  0  0  0
    0.5379    2.3325   27.7210 H   0  0  0  0  0  0  0  0  0  0  0  0
   -0.5117   -1.6633   27.7620 H   0  0  0  0  0  0  0  0  0  0  0  0
   -1.5898   -1.7308   29.9218 H   0  0  0  0  0  0  0  0  0  0  0  0
    0.3713   -4.0525   29.4217 H   0  0  0  0  0  0  0  0  0  0  0  0
   -1.2863   -3.9411   28.8428 H   0  0  0  0  0  0  0  0  0  0  0  0
   -0.6779   -3.5815   31.5594 H   0  0  0  0  0  0  0  0  0  0  0  0
    1.1828   -2.3077   30.7115 H   0  0  0  0  0  0  0  0  0  0  0  0
    2.2850   -0.9857   32.4902 H   0  0  0  0  0  0  0  0  0  0  0  0
    1.5867    0.5778   32.8354 H   0  0  0  0  0  0  0  0  0  0  0  0
    1.1372   -1.8679   34.2146 H   0  0  0  0  0  0  0  0  0  0  0  0
    0.6105   -0.2442   34.6288 H   0  0  0  0  0  0  0  0  0  0  0  0
   -1.7080    0.4147   33.6348 H   0  0  0  0  0  0  0  0  0  0  0  0
   -3.3391   -1.3863   33.5224 H   0  0  0  0  0  0  0  0  0  0  0  0
   -3.5195   -0.3979   32.0626 H   0  0  0  0  0  0  0  0  0  0  0  0
   -2.7012   -1.9703   31.9993 H   0  0  0  0  0  0  0  0  0  0  0  0
   -0.6098    1.2518   31.8859 H   0  0  0  0  0  0  0  0  0  0  0  0
   -1.5534    0.2431   30.8403 H   0  0  0  0  0  0  0  0  0  0  0  0
  1  2  1  0
  2  3  1  0
  3  4  1  0
  4  5  1  0
  5  6  1  0
  5  7  1  0
  7  8  1  0
  8  9  1  0
  9 10  1  0
 10 11  1  0
 11 12  1  0
 12 13  1  0
  7 14  1  0
 14 15  1  0
 15 16  1  0
 16 17  1  0
 15 18  1  0
 18 19  1  0
 19 20  1  0
 20 21  1  0
 21 22  1  0
 22 23  1  0
 23 24  1  0
 23 25  1  0
  6  2  1  0
 13  8  1  0
 25 19  1  0
 19  5  1  0
  1 26  1  0
  1 27  1  0
  1 28  1  0
  2 29  1  0
  3 30  1  0
  6 31  1  0
  7 32  1  0
  9 33  1  0
  9 34  1  0
 10 35  1  0
 10 36  1  0
 11 37  1  0
 11 38  1  0
 12 39  1  0
 12 40  1  0
 13 41  1  0
 13 42  1  0
 14 43  1  0
 15 44  1  0
 16 45  1  0
 16 46  1  0
 17 47  1  0
 18 48  1  0
 20 49  1  0
 20 50  1  0
 21 51  1  0
 21 52  1  0
 23 53  1  0
 24 54  1  0
 24 55  1  0
 24 56  1  0
 25 57  1  0
 25 58  1  0
M  END
>  <Energy>  (993) 
61.475000786227419

>  <compound_id>  (993) 
2266

>  <target_id>  (993) 
1

>  <reference_id>  (993) 
44

>  <inspiration_ids>  (993) 
[44, 13]

>  <energy_score>  (993) 
-106.24396774970455

>  <distance_score>  (993) 
1.58863393260968

>  <path>  (993) 
/opt/xchem-fragalysis-2/maxwin/BulkDock/SCRATCH/505732/C2266-P44/C2266-P44.minimised.mol

>  <scratch_subdir>  (993) 
/opt/xchem-fragalysis-2/maxwin/BulkDock/SCRATCH/505732/C2266-P44

>  <fragmenstein_runtime>  (993) 
4.378258943557739

>  <fragmenstein_outcome>  (993) 
too moved

>  <fragmenstein_mode>  (993) 
expansion

>  <fragmenstein_error>  (993) 


$$$$
C2266-P13
     RDKit          3D

 58 61  0  0  0  0  0  0  0  0999 V2000
    1.2066    3.9002   31.5008 C   0  0  0  0  0  0  0  0  0  0  0  0
    1.4668    2.3986   31.5771 C   0  0  0  0  0  0  0  0  0  0  0  0
    2.6896    2.0278   30.8843 N   0  0  0  0  0  0  0  0  0  0  0  0
    2.6947    0.4439   30.3806 S   0  0  0  0  0  0  0  0  0  0  0  0
    0.8050    0.3363   30.4423 C   0  0  0  0  0  0  0  0  0  0  0  0
    0.3591    1.6457   31.0010 N   0  0  0  0  0  0  0  0  0  0  0  0
    0.3624    0.1341   28.8989 C   0  0  0  0  0  0  0  0  0  0  0  0
   -0.6534    1.1365   28.4116 N   0  0  0  0  0  0  0  0  0  0  0  0
   -1.5968    0.5904   27.4137 C   0  0  0  0  0  0  0  0  0  0  0  0
   -2.5707    1.6415   26.8641 C   0  0  0  0  0  0  0  0  0  0  0  0
   -1.8800    2.8865   26.3342 C   0  0  0  0  0  0  0  0  0  0  0  0
   -0.8997    3.4059   27.3699 C   0  0  0  0  0  0  0  0  0  0  0  0
    0.0555    2.2920   27.7893 C   0  0  0  0  0  0  0  0  0  0  0  0
    0.1181   -1.2346   28.4809 N   0  0  0  0  0  0  0  0  0  0  0  0
   -0.4284   -2.1580   29.4352 C   0  0  0  0  0  0  0  0  0  0  0  0
   -0.2821   -3.5825   28.8532 C   0  0  0  0  0  0  0  0  0  0  0  0
    1.1102   -3.9333   28.7066 O   0  0  0  0  0  0  0  0  0  0  0  0
    0.3904   -2.1370   30.6355 N   0  0  0  0  0  0  0  0  0  0  0  0
    0.2927   -0.8581   31.3813 C   0  0  0  0  0  0  0  0  0  0  0  0
    1.2113   -1.0595   32.6285 C   0  0  0  0  0  0  0  0  0  0  0  0
    0.5112   -1.8709   33.7016 C   0  0  0  0  0  0  0  0  0  0  0  0
   -0.5905   -1.1667   34.2560 O   0  0  0  0  0  0  0  0  0  0  0  0
   -1.2373   -0.2472   33.3700 C   0  0  0  0  0  0  0  0  0  0  0  0
   -2.6647   -0.1432   33.8887 C   0  0  0  0  0  0  0  0  0  0  0  0
   -1.1829   -0.6906   31.8968 C   0  0  0  0  0  0  0  0  0  0  0  0
    0.2962    4.1640   32.0504 H   0  0  0  0  0  0  0  0  0  0  0  0
    2.0362    4.4607   31.9460 H   0  0  0  0  0  0  0  0  0  0  0  0
    1.0858    4.2447   30.4675 H   0  0  0  0  0  0  0  0  0  0  0  0
    1.5623    2.1302   32.6355 H   0  0  0  0  0  0  0  0  0  0  0  0
    2.8241    2.6508   30.0892 H   0  0  0  0  0  0  0  0  0  0  0  0
   -0.0504    2.1535   30.2184 H   0  0  0  0  0  0  0  0  0  0  0  0
    1.2461    0.3731   28.2921 H   0  0  0  0  0  0  0  0  0  0  0  0
   -1.0518    0.1587   26.5727 H   0  0  0  0  0  0  0  0  0  0  0  0
   -2.1968   -0.2063   27.8676 H   0  0  0  0  0  0  0  0  0  0  0  0
   -3.1835    1.1992   26.0731 H   0  0  0  0  0  0  0  0  0  0  0  0
   -3.2507    1.9413   27.6605 H   0  0  0  0  0  0  0  0  0  0  0  0
   -2.6211    3.6560   26.0922 H   0  0  0  0  0  0  0  0  0  0  0  0
   -1.3485    2.6486   25.4055 H   0  0  0  0  0  0  0  0  0  0  0  0
   -0.3318    4.2444   26.9515 H   0  0  0  0  0  0  0  0  0  0  0  0
   -1.4405    3.7869   28.2431 H   0  0  0  0  0  0  0  0  0  0  0  0
    0.7880    2.7243   28.4778 H   0  0  0  0  0  0  0  0  0  0  0  0
    0.6238    1.9614   26.9087 H   0  0  0  0  0  0  0  0  0  0  0  0
    0.9509   -1.6432   28.0580 H   0  0  0  0  0  0  0  0  0  0  0  0
   -1.4901   -1.9658   29.6179 H   0  0  0  0  0  0  0  0  0  0  0  0
   -0.7457   -3.6414   27.8719 H   0  0  0  0  0  0  0  0  0  0  0  0
   -0.7476   -4.3243   29.5085 H   0  0  0  0  0  0  0  0  0  0  0  0
    1.4066   -4.1446   29.6091 H   0  0  0  0  0  0  0  0  0  0  0  0
    1.3566   -2.2366   30.3180 H   0  0  0  0  0  0  0  0  0  0  0  0
    2.1473   -1.5668   32.3625 H   0  0  0  0  0  0  0  0  0  0  0  0
    1.4847   -0.0927   33.0638 H   0  0  0  0  0  0  0  0  0  0  0  0
    0.1553   -2.8340   33.3195 H   0  0  0  0  0  0  0  0  0  0  0  0
    1.2037   -2.0893   34.5210 H   0  0  0  0  0  0  0  0  0  0  0  0
   -0.7536    0.7288   33.4909 H   0  0  0  0  0  0  0  0  0  0  0  0
   -2.6691    0.0849   34.9606 H   0  0  0  0  0  0  0  0  0  0  0  0
   -3.2193    0.6379   33.3776 H   0  0  0  0  0  0  0  0  0  0  0  0
   -3.1982   -1.0926   33.7679 H   0  0  0  0  0  0  0  0  0  0  0  0
   -1.7539   -0.0116   31.2542 H   0  0  0  0  0  0  0  0  0  0  0  0
   -1.6993   -1.6603   31.8490 H   0  0  0  0  0  0  0  0  0  0  0  0
  1  2  1  0
  2  3  1  0
  3  4  1  0
  4  5  1  0
  5  6  1  0
  5  7  1  0
  7  8  1  0
  8  9  1  0
  9 10  1  0
 10 11  1  0
 11 12  1  0
 12 13  1  0
  7 14  1  0
 14 15  1  0
 15 16  1  0
 16 17  1  0
 15 18  1  0
 18 19  1  0
 19 20  1  0
 20 21  1  0
 21 22  1  0
 22 23  1  0
 23 24  1  0
 23 25  1  0
  6  2  1  0
 13  8  1  0
 25 19  1  0
 19  5  1  0
  1 26  1  0
  1 27  1  0
  1 28  1  0
  2 29  1  0
  3 30  1  0
  6 31  1  0
  7 32  1  0
  9 33  1  0
  9 34  1  0
 10 35  1  0
 10 36  1  0
 11 37  1  0
 11 38  1  0
 12 39  1  0
 12 40  1  0
 13 41  1  0
 13 42  1  0
 14 43  1  0
 15 44  1  0
 16 45  1  0
 16 46  1  0
 17 47  1  0
 18 48  1  0
 20 49  1  0
 20 50  1  0
 21 51  1  0
 21 52  1  0
 23 53  1  0
 24 54  1  0
 24 55  1  0
 24 56  1  0
 25 57  1  0
 25 58  1  0
M  END
>  <Energy>  (994) 
55.97347165373165

>  <compound_id>  (994) 
2266

>  <target_id>  (994) 
1

>  <reference_id>  (994) 
13

>  <inspiration_ids>  (994) 
[44, 13]

>  <energy_score>  (994) 
-111.74549688220046

>  <distance_score>  (994) 
1.6803667657544479

>  <path>  (994) 
/opt/xchem-fragalysis-2/maxwin/BulkDock/SCRATCH/505732/C2266-P13/C2266-P13.minimised.mol

>  <scratch_subdir>  (994) 
/opt/xchem-fragalysis-2/maxwin/BulkDock/SCRATCH/505732/C2266-P13

>  <fragmenstein_runtime>  (994) 
4.0866546630859375

>  <fragmenstein_outcome>  (994) 
too moved

>  <fragmenstein_mode>  (994) 
expansion

>  <fragmenstein_error>  (994) 


$$$$
C2271-P44
     RDKit          3D

 68 68  0  0  0  0  0  0  0  0999 V2000
    4.6849   -0.6960   32.3564 C   0  0  0  0  0  0  0  0  0  0  0  0
    3.5673   -0.0306   31.5671 C   0  0  0  0  0  0  0  0  0  0  0  0
    4.0910    0.5827   30.2701 C   0  0  0  0  0  0  0  0  0  0  0  0
    2.9941    1.0995   29.3263 C   0  0  0  0  0  0  0  0  0  0  0  0
    2.1733    2.3014   29.8807 C   0  0  0  0  0  0  0  0  0  0  0  0
    0.8514    1.8781   30.5641 C   0  0  0  0  0  0  0  0  0  0  0  0
   -0.0385    0.7879   29.9602 C   0  0  0  0  0  0  0  0  0  0  0  0
   -0.3525    0.7479   28.4457 C   0  0  0  0  0  0  0  0  0  0  0  0
   -1.1740   -0.5372   28.1413 C   0  0  0  0  0  0  0  0  0  0  0  0
   -0.6712   -1.8699   28.7188 C   0  0  0  0  0  0  0  0  0  0  0  0
    0.8007   -2.1793   28.4988 C   0  0  0  0  0  0  0  0  0  0  0  0
   -1.1346    1.9999   27.9161 C   0  0  0  0  0  0  0  0  0  0  0  0
   -1.3711    1.9322   26.4511 N   0  0  0  0  0  0  0  0  0  0  0  0
   -2.6005    2.6417   26.0305 C   0  0  0  0  0  0  0  0  0  0  0  0
   -2.4273    3.7455   24.9506 C   0  0  0  0  0  0  0  0  0  0  0  0
   -1.5910    3.3548   23.7404 C   0  0  0  0  0  0  0  0  0  0  0  0
   -1.8300    4.9119   25.5227 O   0  0  0  0  0  0  0  0  0  0  0  0
   -0.4394    3.3366   28.2123 C   0  0  0  0  0  0  0  0  0  0  0  0
    1.0183    3.4229   27.7549 C   0  0  0  0  0  0  0  0  0  0  0  0
    2.1004    3.4842   28.8435 C   0  0  0  0  0  0  0  0  0  0  0  0
    2.4082    4.8152   29.4114 N   0  0  0  0  0  0  0  0  0  0  0  0
    1.4317    5.6764   30.0335 C   0  0  0  0  0  0  0  0  0  0  0  0
    0.8643    5.0026   31.1782 N   0  0  0  0  0  0  0  0  0  0  0  0
    0.4242    6.4443   29.1400 C   0  0  0  0  0  0  0  0  0  0  0  0
   -0.5591    7.1045   29.9460 O   0  0  0  0  0  0  0  0  0  0  0  0
    5.4664    0.0259   32.6143 H   0  0  0  0  0  0  0  0  0  0  0  0
    5.1421   -1.5079   31.7818 H   0  0  0  0  0  0  0  0  0  0  0  0
    4.2919   -1.1185   33.2865 H   0  0  0  0  0  0  0  0  0  0  0  0
    2.7926   -0.7734   31.3471 H   0  0  0  0  0  0  0  0  0  0  0  0
    3.1167    0.7434   32.1957 H   0  0  0  0  0  0  0  0  0  0  0  0
    4.7894    1.3966   30.5008 H   0  0  0  0  0  0  0  0  0  0  0  0
    4.6684   -0.1759   29.7263 H   0  0  0  0  0  0  0  0  0  0  0  0
    2.3540    0.2606   29.0560 H   0  0  0  0  0  0  0  0  0  0  0  0
    3.4990    1.3791   28.3940 H   0  0  0  0  0  0  0  0  0  0  0  0
    2.7865    2.7108   30.6984 H   0  0  0  0  0  0  0  0  0  0  0  0
    1.1188    1.5089   31.5642 H   0  0  0  0  0  0  0  0  0  0  0  0
    0.2324    2.7375   30.8022 H   0  0  0  0  0  0  0  0  0  0  0  0
   -0.9875    0.7852   30.5113 H   0  0  0  0  0  0  0  0  0  0  0  0
    0.4368   -0.1509   30.2543 H   0  0  0  0  0  0  0  0  0  0  0  0
    0.5849    0.6610   27.8884 H   0  0  0  0  0  0  0  0  0  0  0  0
   -2.2003   -0.3980   28.5023 H   0  0  0  0  0  0  0  0  0  0  0  0
   -1.2556   -0.6482   27.0567 H   0  0  0  0  0  0  0  0  0  0  0  0
   -0.8998   -1.9291   29.7894 H   0  0  0  0  0  0  0  0  0  0  0  0
   -1.2565   -2.6668   28.2544 H   0  0  0  0  0  0  0  0  0  0  0  0
    1.4119   -1.8308   29.3346 H   0  0  0  0  0  0  0  0  0  0  0  0
    0.9526   -3.2618   28.4339 H   0  0  0  0  0  0  0  0  0  0  0  0
    1.1847   -1.7184   27.5884 H   0  0  0  0  0  0  0  0  0  0  0  0
   -2.1077    1.9906   28.4199 H   0  0  0  0  0  0  0  0  0  0  0  0
   -0.5783    2.3694   25.9847 H   0  0  0  0  0  0  0  0  0  0  0  0
   -3.1049    3.1003   26.8892 H   0  0  0  0  0  0  0  0  0  0  0  0
   -3.2816    1.8784   25.6454 H   0  0  0  0  0  0  0  0  0  0  0  0
   -3.4239    4.0362   24.5961 H   0  0  0  0  0  0  0  0  0  0  0  0
   -0.5476    3.1631   24.0078 H   0  0  0  0  0  0  0  0  0  0  0  0
   -1.5677    4.1826   23.0221 H   0  0  0  0  0  0  0  0  0  0  0  0
   -2.0003    2.4829   23.2299 H   0  0  0  0  0  0  0  0  0  0  0  0
   -2.5324    5.3630   26.0389 H   0  0  0  0  0  0  0  0  0  0  0  0
   -1.0056    4.1185   27.6976 H   0  0  0  0  0  0  0  0  0  0  0  0
   -0.5579    3.6079   29.2558 H   0  0  0  0  0  0  0  0  0  0  0  0
    1.2662    2.5945   27.0806 H   0  0  0  0  0  0  0  0  0  0  0  0
    1.1247    4.3137   27.1201 H   0  0  0  0  0  0  0  0  0  0  0  0
    3.0181    3.3494   28.2520 H   0  0  0  0  0  0  0  0  0  0  0  0
    2.8539    5.3636   28.6748 H   0  0  0  0  0  0  0  0  0  0  0  0
    2.0283    6.4835   30.4821 H   0  0  0  0  0  0  0  0  0  0  0  0
    1.6469    4.7127   31.7588 H   0  0  0  0  0  0  0  0  0  0  0  0
    0.3403    5.6962   31.7096 H   0  0  0  0  0  0  0  0  0  0  0  0
    0.9537    7.2149   28.5691 H   0  0  0  0  0  0  0  0  0  0  0  0
   -0.1057    5.8279   28.4240 H   0  0  0  0  0  0  0  0  0  0  0  0
   -1.1418    6.3737   30.2584 H   0  0  0  0  0  0  0  0  0  0  0  0
  1  2  1  0
  2  3  1  0
  3  4  1  0
  4  5  1  0
  5  6  1  0
  6  7  1  0
  7  8  1  0
  8  9  1  0
  9 10  1  0
 10 11  1  0
  8 12  1  0
 12 13  1  0
 13 14  1  0
 14 15  1  0
 15 16  1  0
 15 17  1  0
 12 18  1  0
 18 19  1  0
 19 20  1  0
 20 21  1  0
 21 22  1  0
 22 23  1  0
 22 24  1  0
 24 25  1  0
 20  5  1  0
  1 26  1  0
  1 27  1  0
  1 28  1  0
  2 29  1  0
  2 30  1  0
  3 31  1  0
  3 32  1  0
  4 33  1  0
  4 34  1  0
  5 35  1  0
  6 36  1  0
  6 37  1  0
  7 38  1  0
  7 39  1  0
  8 40  1  0
  9 41  1  0
  9 42  1  0
 10 43  1  0
 10 44  1  0
 11 45  1  0
 11 46  1  0
 11 47  1  0
 12 48  1  0
 13 49  1  0
 14 50  1  0
 14 51  1  0
 15 52  1  0
 16 53  1  0
 16 54  1  0
 16 55  1  0
 17 56  1  0
 18 57  1  0
 18 58  1  0
 19 59  1  0
 19 60  1  0
 20 61  1  0
 21 62  1  0
 22 63  1  0
 23 64  1  0
 23 65  1  0
 24 66  1  0
 24 67  1  0
 25 68  1  0
M  END
>  <Energy>  (995) 
65.353312911834536

>  <compound_id>  (995) 
2271

>  <target_id>  (995) 
1

>  <reference_id>  (995) 
44

>  <inspiration_ids>  (995) 
[44, 70]

>  <energy_score>  (995) 
-76.35418919640506

>  <distance_score>  (995) 
2.212812779492422

>  <path>  (995) 
/opt/xchem-fragalysis-2/maxwin/BulkDock/SCRATCH/505732/C2271-P44/C2271-P44.minimised.mol

>  <scratch_subdir>  (995) 
/opt/xchem-fragalysis-2/maxwin/BulkDock/SCRATCH/505732/C2271-P44

>  <fragmenstein_runtime>  (995) 
111.52279567718506

>  <fragmenstein_outcome>  (995) 
too moved

>  <fragmenstein_mode>  (995) 
expansion

>  <fragmenstein_error>  (995) 


$$$$
C2271-P70
     RDKit          3D

 68 68  0  0  0  0  0  0  0  0999 V2000
    6.5635    0.4288   27.8675 C   0  0  0  0  0  0  0  0  0  0  0  0
    5.2261    0.5215   28.5871 C   0  0  0  0  0  0  0  0  0  0  0  0
    4.0620    0.2619   27.6318 C   0  0  0  0  0  0  0  0  0  0  0  0
    2.6927    0.1617   28.3225 C   0  0  0  0  0  0  0  0  0  0  0  0
    2.2183    1.4141   29.1001 C   0  0  0  0  0  0  0  0  0  0  0  0
    1.0911    1.1162   30.1074 C   0  0  0  0  0  0  0  0  0  0  0  0
   -0.0840    0.2077   29.7487 C   0  0  0  0  0  0  0  0  0  0  0  0
   -0.7157    0.0968   28.3333 C   0  0  0  0  0  0  0  0  0  0  0  0
   -1.7190   -1.0796   28.3759 C   0  0  0  0  0  0  0  0  0  0  0  0
   -1.3379   -2.3502   29.1556 C   0  0  0  0  0  0  0  0  0  0  0  0
   -0.0947   -3.0717   28.6669 C   0  0  0  0  0  0  0  0  0  0  0  0
   -1.4379    1.4051   27.8367 C   0  0  0  0  0  0  0  0  0  0  0  0
   -1.9034    1.3808   26.4214 N   0  0  0  0  0  0  0  0  0  0  0  0
   -2.7541    2.5558   26.0797 C   0  0  0  0  0  0  0  0  0  0  0  0
   -2.2346    3.6199   25.0586 C   0  0  0  0  0  0  0  0  0  0  0  0
   -1.0819    3.2245   24.1427 C   0  0  0  0  0  0  0  0  0  0  0  0
   -1.8384    4.8093   25.7472 O   0  0  0  0  0  0  0  0  0  0  0  0
   -0.5767    2.6306   28.0526 C   0  0  0  0  0  0  0  0  0  0  0  0
    0.7572    2.6283   27.3157 C   0  0  0  0  0  0  0  0  0  0  0  0
    1.9934    2.6915   28.2139 C   0  0  0  0  0  0  0  0  0  0  0  0
    2.2424    3.9234   28.9716 N   0  0  0  0  0  0  0  0  0  0  0  0
    1.2688    4.9284   29.2999 C   0  0  0  0  0  0  0  0  0  0  0  0
    0.5628    4.4915   30.4924 N   0  0  0  0  0  0  0  0  0  0  0  0
    0.4278    5.6805   28.2314 C   0  0  0  0  0  0  0  0  0  0  0  0
   -0.3700    6.6993   28.8610 O   0  0  0  0  0  0  0  0  0  0  0  0
    6.6271    1.1670   27.0619 H   0  0  0  0  0  0  0  0  0  0  0  0
    6.7091   -0.5663   27.4350 H   0  0  0  0  0  0  0  0  0  0  0  0
    7.3838    0.6180   28.5670 H   0  0  0  0  0  0  0  0  0  0  0  0
    5.2075   -0.2068   29.4058 H   0  0  0  0  0  0  0  0  0  0  0  0
    5.1406    1.5188   29.0309 H   0  0  0  0  0  0  0  0  0  0  0  0
    4.0401    1.0315   26.8533 H   0  0  0  0  0  0  0  0  0  0  0  0
    4.2383   -0.6880   27.1099 H   0  0  0  0  0  0  0  0  0  0  0  0
    2.7252   -0.6920   29.0114 H   0  0  0  0  0  0  0  0  0  0  0  0
    1.9831   -0.0979   27.5384 H   0  0  0  0  0  0  0  0  0  0  0  0
    3.0702    1.6645   29.7486 H   0  0  0  0  0  0  0  0  0  0  0  0
    1.5808    0.6268   30.9654 H   0  0  0  0  0  0  0  0  0  0  0  0
    0.7207    2.0336   30.5620 H   0  0  0  0  0  0  0  0  0  0  0  0
   -0.8878    0.4088   30.4709 H   0  0  0  0  0  0  0  0  0  0  0  0
    0.3049   -0.7767   30.0214 H   0  0  0  0  0  0  0  0  0  0  0  0
    0.0435   -0.1795   27.6043 H   0  0  0  0  0  0  0  0  0  0  0  0
   -2.5960   -0.6778   28.8720 H   0  0  0  0  0  0  0  0  0  0  0  0
   -2.0311   -1.3541   27.3674 H   0  0  0  0  0  0  0  0  0  0  0  0
   -1.2371   -2.1256   30.2236 H   0  0  0  0  0  0  0  0  0  0  0  0
   -2.1800   -3.0427   29.1162 H   0  0  0  0  0  0  0  0  0  0  0  0
    0.1853   -3.8545   29.3796 H   0  0  0  0  0  0  0  0  0  0  0  0
   -0.2826   -3.5620   27.7140 H   0  0  0  0  0  0  0  0  0  0  0  0
    0.7620   -2.4050   28.5463 H   0  0  0  0  0  0  0  0  0  0  0  0
   -2.3267    1.5243   28.4685 H   0  0  0  0  0  0  0  0  0  0  0  0
   -2.4686    0.5387   26.3092 H   0  0  0  0  0  0  0  0  0  0  0  0
   -3.1131    3.0638   26.9831 H   0  0  0  0  0  0  0  0  0  0  0  0
   -3.6733    2.1382   25.6678 H   0  0  0  0  0  0  0  0  0  0  0  0
   -3.0767    3.9116   24.4184 H   0  0  0  0  0  0  0  0  0  0  0  0
   -0.6849    4.1094   23.6316 H   0  0  0  0  0  0  0  0  0  0  0  0
   -1.4000    2.5243   23.3701 H   0  0  0  0  0  0  0  0  0  0  0  0
   -0.2476    2.7905   24.6949 H   0  0  0  0  0  0  0  0  0  0  0  0
   -2.6457    5.2822   26.0329 H   0  0  0  0  0  0  0  0  0  0  0  0
   -1.1690    3.4940   27.7654 H   0  0  0  0  0  0  0  0  0  0  0  0
   -0.4564    2.7768   29.1153 H   0  0  0  0  0  0  0  0  0  0  0  0
    0.8432    1.7545   26.6626 H   0  0  0  0  0  0  0  0  0  0  0  0
    0.7940    3.4789   26.6255 H   0  0  0  0  0  0  0  0  0  0  0  0
    2.8314    2.6995   27.5069 H   0  0  0  0  0  0  0  0  0  0  0  0
    2.8169    3.7344   29.7851 H   0  0  0  0  0  0  0  0  0  0  0  0
    1.8875    5.7536   29.6845 H   0  0  0  0  0  0  0  0  0  0  0  0
    1.2038    4.5620   31.2771 H   0  0  0  0  0  0  0  0  0  0  0  0
   -0.1676    5.1847   30.6769 H   0  0  0  0  0  0  0  0  0  0  0  0
    1.1081    6.1937   27.5424 H   0  0  0  0  0  0  0  0  0  0  0  0
   -0.2374    5.0929   27.6262 H   0  0  0  0  0  0  0  0  0  0  0  0
   -1.1154    6.2264   29.2891 H   0  0  0  0  0  0  0  0  0  0  0  0
  1  2  1  0
  2  3  1  0
  3  4  1  0
  4  5  1  0
  5  6  1  0
  6  7  1  0
  7  8  1  0
  8  9  1  0
  9 10  1  0
 10 11  1  0
  8 12  1  0
 12 13  1  0
 13 14  1  0
 14 15  1  0
 15 16  1  0
 15 17  1  0
 12 18  1  0
 18 19  1  0
 19 20  1  0
 20 21  1  0
 21 22  1  0
 22 23  1  0
 22 24  1  0
 24 25  1  0
 20  5  1  0
  1 26  1  0
  1 27  1  0
  1 28  1  0
  2 29  1  0
  2 30  1  0
  3 31  1  0
  3 32  1  0
  4 33  1  0
  4 34  1  0
  5 35  1  0
  6 36  1  0
  6 37  1  0
  7 38  1  0
  7 39  1  0
  8 40  1  0
  9 41  1  0
  9 42  1  0
 10 43  1  0
 10 44  1  0
 11 45  1  0
 11 46  1  0
 11 47  1  0
 12 48  1  0
 13 49  1  0
 14 50  1  0
 14 51  1  0
 15 52  1  0
 16 53  1  0
 16 54  1  0
 16 55  1  0
 17 56  1  0
 18 57  1  0
 18 58  1  0
 19 59  1  0
 19 60  1  0
 20 61  1  0
 21 62  1  0
 22 63  1  0
 23 64  1  0
 23 65  1  0
 24 66  1  0
 24 67  1  0
 25 68  1  0
M  END
>  <Energy>  (996) 
77.616507462421339

>  <compound_id>  (996) 
2271

>  <target_id>  (996) 
1

>  <reference_id>  (996) 
70

>  <inspiration_ids>  (996) 
[44, 70]

>  <energy_score>  (996) 
-33.28013208380946

>  <distance_score>  (996) 
1.8382560252658684

>  <path>  (996) 
/opt/xchem-fragalysis-2/maxwin/BulkDock/SCRATCH/505732/C2271-P70/C2271-P70.minimised.mol

>  <scratch_subdir>  (996) 
/opt/xchem-fragalysis-2/maxwin/BulkDock/SCRATCH/505732/C2271-P70

>  <fragmenstein_runtime>  (996) 
107.4862973690033

>  <fragmenstein_outcome>  (996) 
too moved

>  <fragmenstein_mode>  (996) 
expansion

>  <fragmenstein_error>  (996) 


$$$$
C2276-P44
     RDKit          3D

 59 60  0  0  0  0  0  0  0  0999 V2000
   -0.7327   -8.1840   31.3775 C   0  0  0  0  0  0  0  0  0  0  0  0
   -0.3985   -6.8669   30.8555 N   0  0  0  0  0  0  0  0  0  0  0  0
   -1.2497   -6.0152   31.6564 O   0  0  0  0  0  0  0  0  0  0  0  0
   -0.7976   -4.6674   31.8303 C   0  0  0  0  0  0  0  0  0  0  0  0
    0.3071   -4.6184   32.8836 C   0  0  0  0  0  0  0  0  0  0  0  0
    0.1853   -3.3944   33.7954 C   0  0  0  0  0  0  0  0  0  0  0  0
    1.2528   -2.3125   33.6459 C   0  0  0  0  0  0  0  0  0  0  0  0
    1.0077   -1.1132   32.7009 C   0  0  0  0  0  0  0  0  0  0  0  0
   -0.3053   -0.5102   32.9079 N   0  0  0  0  0  0  0  0  0  0  0  0
    1.5308   -1.2001   31.2237 C   0  0  0  0  0  0  0  0  0  0  0  0
    2.4295   -2.3926   30.8934 C   0  0  0  0  0  0  0  0  0  0  0  0
    2.9433   -2.4809   29.4590 C   0  0  0  0  0  0  0  0  0  0  0  0
    2.0149   -1.9639   28.3862 C   0  0  0  0  0  0  0  0  0  0  0  0
    1.5129   -0.5971   28.7766 C   0  0  0  0  0  0  0  0  0  0  0  0
    0.6526   -0.6888   30.0590 C   0  0  0  0  0  0  0  0  0  0  0  0
   -0.7255   -1.3080   29.6801 C   0  0  0  0  0  0  0  0  0  0  0  0
   -1.6884   -0.1542   29.6647 N   0  0  0  0  0  0  0  0  0  0  0  0
   -1.6516    0.8216   28.5581 C   0  0  0  0  0  0  0  0  0  0  0  0
   -0.5282    1.7419   28.6731 N   0  0  0  0  0  0  0  0  0  0  0  0
   -1.7755    0.3248   27.1020 C   0  0  0  0  0  0  0  0  0  0  0  0
   -2.1147    1.4221   26.2328 O   0  0  0  0  0  0  0  0  0  0  0  0
   -1.2839   -2.4884   30.5778 C   0  0  0  0  0  0  0  0  0  0  0  0
   -0.5956   -3.8756   30.5247 C   0  0  0  0  0  0  0  0  0  0  0  0
   -1.8000   -8.2838   31.6005 H   0  0  0  0  0  0  0  0  0  0  0  0
   -0.1871   -8.3762   32.3044 H   0  0  0  0  0  0  0  0  0  0  0  0
   -0.4840   -8.9331   30.6277 H   0  0  0  0  0  0  0  0  0  0  0  0
    0.5447   -6.6367   31.1690 H   0  0  0  0  0  0  0  0  0  0  0  0
   -1.6535   -4.2002   32.3169 H   0  0  0  0  0  0  0  0  0  0  0  0
    0.1890   -5.5030   33.5266 H   0  0  0  0  0  0  0  0  0  0  0  0
    1.3027   -4.7356   32.4513 H   0  0  0  0  0  0  0  0  0  0  0  0
    0.3042   -3.7811   34.8189 H   0  0  0  0  0  0  0  0  0  0  0  0
   -0.8200   -2.9614   33.7923 H   0  0  0  0  0  0  0  0  0  0  0  0
    2.2331   -2.7677   33.4709 H   0  0  0  0  0  0  0  0  0  0  0  0
    1.3504   -1.8711   34.6511 H   0  0  0  0  0  0  0  0  0  0  0  0
    1.6803   -0.3513   33.1299 H   0  0  0  0  0  0  0  0  0  0  0  0
   -0.4540    0.2531   32.2469 H   0  0  0  0  0  0  0  0  0  0  0  0
   -0.3665   -0.1163   33.8442 H   0  0  0  0  0  0  0  0  0  0  0  0
    2.2914   -0.3943   31.2423 H   0  0  0  0  0  0  0  0  0  0  0  0
    1.9816   -3.3367   31.1637 H   0  0  0  0  0  0  0  0  0  0  0  0
    3.3180   -2.3434   31.5398 H   0  0  0  0  0  0  0  0  0  0  0  0
    3.2283   -3.5163   29.2360 H   0  0  0  0  0  0  0  0  0  0  0  0
    3.8765   -1.9031   29.4041 H   0  0  0  0  0  0  0  0  0  0  0  0
    2.5719   -1.8947   27.4461 H   0  0  0  0  0  0  0  0  0  0  0  0
    1.1990   -2.6726   28.2185 H   0  0  0  0  0  0  0  0  0  0  0  0
    0.9626   -0.1811   27.9334 H   0  0  0  0  0  0  0  0  0  0  0  0
    2.3593    0.0824   28.9429 H   0  0  0  0  0  0  0  0  0  0  0  0
    0.4842    0.3535   30.3549 H   0  0  0  0  0  0  0  0  0  0  0  0
   -0.7161   -1.7157   28.6631 H   0  0  0  0  0  0  0  0  0  0  0  0
   -2.6179   -0.5689   29.6314 H   0  0  0  0  0  0  0  0  0  0  0  0
   -2.5309    1.4527   28.7093 H   0  0  0  0  0  0  0  0  0  0  0  0
   -0.6117    2.4143   27.9078 H   0  0  0  0  0  0  0  0  0  0  0  0
   -0.6009    2.2690   29.5321 H   0  0  0  0  0  0  0  0  0  0  0  0
   -2.5402   -0.4474   27.0048 H   0  0  0  0  0  0  0  0  0  0  0  0
   -0.8330   -0.0948   26.7554 H   0  0  0  0  0  0  0  0  0  0  0  0
   -3.0343    1.6779   26.4341 H   0  0  0  0  0  0  0  0  0  0  0  0
   -1.3718   -2.1470   31.6055 H   0  0  0  0  0  0  0  0  0  0  0  0
   -2.3234   -2.6603   30.2692 H   0  0  0  0  0  0  0  0  0  0  0  0
   -1.0019   -4.4070   29.6627 H   0  0  0  0  0  0  0  0  0  0  0  0
    0.4485   -3.8025   30.2637 H   0  0  0  0  0  0  0  0  0  0  0  0
  1  2  1  0
  2  3  1  0
  3  4  1  0
  4  5  1  0
  5  6  1  0
  6  7  1  0
  7  8  1  0
  8  9  1  0
  8 10  1  0
 10 11  1  0
 11 12  1  0
 12 13  1  0
 13 14  1  0
 14 15  1  0
 15 16  1  0
 16 17  1  0
 17 18  1  0
 18 19  1  0
 18 20  1  0
 20 21  1  0
 16 22  1  0
 22 23  1  0
 23  4  1  0
 15 10  1  0
  1 24  1  0
  1 25  1  0
  1 26  1  0
  2 27  1  0
  4 28  1  0
  5 29  1  0
  5 30  1  0
  6 31  1  0
  6 32  1  0
  7 33  1  0
  7 34  1  0
  8 35  1  0
  9 36  1  0
  9 37  1  0
 10 38  1  0
 11 39  1  0
 11 40  1  0
 12 41  1  0
 12 42  1  0
 13 43  1  0
 13 44  1  0
 14 45  1  0
 14 46  1  0
 15 47  1  0
 16 48  1  0
 17 49  1  0
 18 50  1  0
 19 51  1  0
 19 52  1  0
 20 53  1  0
 20 54  1  0
 21 55  1  0
 22 56  1  0
 22 57  1  0
 23 58  1  0
 23 59  1  0
M  END
>  <Energy>  (997) 
89.62646908947282

>  <compound_id>  (997) 
2276

>  <target_id>  (997) 
1

>  <reference_id>  (997) 
44

>  <inspiration_ids>  (997) 
[44, 134]

>  <energy_score>  (997) 
-80.31447878582878

>  <distance_score>  (997) 
2.529917359335036

>  <path>  (997) 
/opt/xchem-fragalysis-2/maxwin/BulkDock/SCRATCH/505732/C2276-P44/C2276-P44.minimised.mol

>  <scratch_subdir>  (997) 
/opt/xchem-fragalysis-2/maxwin/BulkDock/SCRATCH/505732/C2276-P44

>  <fragmenstein_runtime>  (997) 
87.51221799850464

>  <fragmenstein_outcome>  (997) 
too moved

>  <fragmenstein_mode>  (997) 
expansion

>  <fragmenstein_error>  (997) 


$$$$
C2276-P134
     RDKit          3D

 59 60  0  0  0  0  0  0  0  0999 V2000
   -1.3855   -7.8590   31.4880 C   0  0  0  0  0  0  0  0  0  0  0  0
   -0.8613   -6.8489   32.3670 N   0  0  0  0  0  0  0  0  0  0  0  0
    0.3339   -6.3554   31.7022 O   0  0  0  0  0  0  0  0  0  0  0  0
    0.3109   -4.9041   31.7222 C   0  0  0  0  0  0  0  0  0  0  0  0
    1.7445   -4.4277   31.6303 C   0  0  0  0  0  0  0  0  0  0  0  0
    2.3159   -4.0025   32.9819 C   0  0  0  0  0  0  0  0  0  0  0  0
    1.6695   -2.7959   33.6897 C   0  0  0  0  0  0  0  0  0  0  0  0
    1.2422   -1.6445   32.7524 C   0  0  0  0  0  0  0  0  0  0  0  0
    1.6330   -0.3447   33.3093 N   0  0  0  0  0  0  0  0  0  0  0  0
   -0.2782   -1.7142   32.4800 C   0  0  0  0  0  0  0  0  0  0  0  0
   -1.0807   -1.1677   33.6682 C   0  0  0  0  0  0  0  0  0  0  0  0
   -2.5664   -1.3377   33.4490 C   0  0  0  0  0  0  0  0  0  0  0  0
   -2.9590   -0.6123   32.1949 C   0  0  0  0  0  0  0  0  0  0  0  0
   -2.2644   -1.2350   31.0176 C   0  0  0  0  0  0  0  0  0  0  0  0
   -0.7446   -1.0951   31.1501 C   0  0  0  0  0  0  0  0  0  0  0  0
   -0.0626   -1.6708   29.8942 C   0  0  0  0  0  0  0  0  0  0  0  0
   -0.3682   -0.8817   28.6513 N   0  0  0  0  0  0  0  0  0  0  0  0
   -0.7845    0.5203   28.6889 C   0  0  0  0  0  0  0  0  0  0  0  0
    0.3924    1.3230   28.9697 N   0  0  0  0  0  0  0  0  0  0  0  0
   -1.4099    0.9610   27.3324 C   0  0  0  0  0  0  0  0  0  0  0  0
   -1.8976    2.3024   27.3603 O   0  0  0  0  0  0  0  0  0  0  0  0
   -0.2833   -3.2342   29.5957 C   0  0  0  0  0  0  0  0  0  0  0  0
   -0.5820   -4.3995   30.5832 C   0  0  0  0  0  0  0  0  0  0  0  0
   -1.6098   -7.4086   30.5200 H   0  0  0  0  0  0  0  0  0  0  0  0
   -2.3053   -8.2671   31.9073 H   0  0  0  0  0  0  0  0  0  0  0  0
   -0.6873   -8.6798   31.3317 H   0  0  0  0  0  0  0  0  0  0  0  0
   -0.4990   -7.2845   33.2188 H   0  0  0  0  0  0  0  0  0  0  0  0
   -0.1172   -4.6210   32.6888 H   0  0  0  0  0  0  0  0  0  0  0  0
    2.3667   -5.2299   31.2296 H   0  0  0  0  0  0  0  0  0  0  0  0
    1.8671   -3.6038   30.9273 H   0  0  0  0  0  0  0  0  0  0  0  0
    2.3108   -4.8578   33.6695 H   0  0  0  0  0  0  0  0  0  0  0  0
    3.3747   -3.7590   32.8205 H   0  0  0  0  0  0  0  0  0  0  0  0
    2.4042   -2.4356   34.4230 H   0  0  0  0  0  0  0  0  0  0  0  0
    0.8263   -3.1526   34.2922 H   0  0  0  0  0  0  0  0  0  0  0  0
    1.8186   -1.7307   31.8328 H   0  0  0  0  0  0  0  0  0  0  0  0
    1.4081    0.3875   32.6319 H   0  0  0  0  0  0  0  0  0  0  0  0
    2.6457   -0.3105   33.4218 H   0  0  0  0  0  0  0  0  0  0  0  0
   -0.5712   -2.7526   32.4414 H   0  0  0  0  0  0  0  0  0  0  0  0
   -0.8695   -0.1025   33.8261 H   0  0  0  0  0  0  0  0  0  0  0  0
   -0.8062   -1.6810   34.5964 H   0  0  0  0  0  0  0  0  0  0  0  0
   -3.1115   -0.9243   34.3053 H   0  0  0  0  0  0  0  0  0  0  0  0
   -2.8295   -2.3977   33.3818 H   0  0  0  0  0  0  0  0  0  0  0  0
   -4.0439   -0.6448   32.1080 H   0  0  0  0  0  0  0  0  0  0  0  0
   -2.6592    0.4293   32.2911 H   0  0  0  0  0  0  0  0  0  0  0  0
   -2.5592   -2.2850   30.9356 H   0  0  0  0  0  0  0  0  0  0  0  0
   -2.6154   -0.7415   30.1180 H   0  0  0  0  0  0  0  0  0  0  0  0
   -0.4992   -0.0281   31.2264 H   0  0  0  0  0  0  0  0  0  0  0  0
    1.0173   -1.5443   30.0080 H   0  0  0  0  0  0  0  0  0  0  0  0
   -1.0308   -1.4019   28.0704 H   0  0  0  0  0  0  0  0  0  0  0  0
   -1.5298    0.7530   29.4470 H   0  0  0  0  0  0  0  0  0  0  0  0
    1.1052    1.0134   28.3121 H   0  0  0  0  0  0  0  0  0  0  0  0
    0.1691    2.2820   28.6898 H   0  0  0  0  0  0  0  0  0  0  0  0
   -2.2216    0.2987   27.0255 H   0  0  0  0  0  0  0  0  0  0  0  0
   -0.6386    0.9334   26.5683 H   0  0  0  0  0  0  0  0  0  0  0  0
   -2.7332    2.3253   27.8674 H   0  0  0  0  0  0  0  0  0  0  0  0
    0.5721   -3.5459   28.9787 H   0  0  0  0  0  0  0  0  0  0  0  0
   -1.1367   -3.2765   28.9043 H   0  0  0  0  0  0  0  0  0  0  0  0
   -1.5666   -4.2166   31.0216 H   0  0  0  0  0  0  0  0  0  0  0  0
   -0.6978   -5.2596   29.9135 H   0  0  0  0  0  0  0  0  0  0  0  0
  1  2  1  0
  2  3  1  0
  3  4  1  0
  4  5  1  0
  5  6  1  0
  6  7  1  0
  7  8  1  0
  8  9  1  0
  8 10  1  0
 10 11  1  0
 11 12  1  0
 12 13  1  0
 13 14  1  0
 14 15  1  0
 15 16  1  0
 16 17  1  0
 17 18  1  0
 18 19  1  0
 18 20  1  0
 20 21  1  0
 16 22  1  0
 22 23  1  0
 23  4  1  0
 15 10  1  0
  1 24  1  0
  1 25  1  0
  1 26  1  0
  2 27  1  0
  4 28  1  0
  5 29  1  0
  5 30  1  0
  6 31  1  0
  6 32  1  0
  7 33  1  0
  7 34  1  0
  8 35  1  0
  9 36  1  0
  9 37  1  0
 10 38  1  0
 11 39  1  0
 11 40  1  0
 12 41  1  0
 12 42  1  0
 13 43  1  0
 13 44  1  0
 14 45  1  0
 14 46  1  0
 15 47  1  0
 16 48  1  0
 17 49  1  0
 18 50  1  0
 19 51  1  0
 19 52  1  0
 20 53  1  0
 20 54  1  0
 21 55  1  0
 22 56  1  0
 22 57  1  0
 23 58  1  0
 23 59  1  0
M  END
>  <Energy>  (998) 
60.444616157902772

>  <compound_id>  (998) 
2276

>  <target_id>  (998) 
1

>  <reference_id>  (998) 
134

>  <inspiration_ids>  (998) 
[44, 134]

>  <energy_score>  (998) 
-109.49633171739885

>  <distance_score>  (998) 
3.032215230994993

>  <path>  (998) 
/opt/xchem-fragalysis-2/maxwin/BulkDock/SCRATCH/505732/C2276-P134/C2276-P134.minimised.mol

>  <scratch_subdir>  (998) 
/opt/xchem-fragalysis-2/maxwin/BulkDock/SCRATCH/505732/C2276-P134

>  <fragmenstein_runtime>  (998) 
88.49201345443726

>  <fragmenstein_outcome>  (998) 
too moved

>  <fragmenstein_mode>  (998) 
expansion

>  <fragmenstein_error>  (998) 


$$$$
C2278-P44
     RDKit          3D

 70 75  0  0  0  0  0  0  0  0999 V2000
   -1.1800    4.2496   26.4999 C   0  0  0  0  0  0  0  0  0  0  0  0
   -0.7261    3.1856   27.4549 C   0  0  0  0  0  0  0  0  0  0  0  0
   -0.0013    3.5179   28.5896 C   0  0  0  0  0  0  0  0  0  0  0  0
    0.3931    2.5021   29.4498 C   0  0  0  0  0  0  0  0  0  0  0  0
    1.0098    2.7439   30.6798 N   0  0  0  0  0  0  0  0  0  0  0  0
    1.0558    4.1137   31.2024 C   0  0  0  0  0  0  0  0  0  0  0  0
    1.4003    4.0965   32.6884 C   0  0  0  0  0  0  0  0  0  0  0  0
    2.7565    3.4506   32.9455 C   0  0  0  0  0  0  0  0  0  0  0  0
    3.2345    2.6368   31.7463 C   0  0  0  0  0  0  0  0  0  0  0  0
    2.0920    1.8071   31.0999 C   0  0  0  0  0  0  0  0  0  0  0  0
    1.6054    0.7066   31.9712 N   0  0  0  0  0  0  0  0  0  0  0  0
    0.2545    0.5182   32.2090 C   0  0  0  0  0  0  0  0  0  0  0  0
   -0.2851   -0.5601   32.8035 C   0  0  0  0  0  0  0  0  0  0  0  0
   -1.6522   -0.5603   32.9655 N   0  0  0  0  0  0  0  0  0  0  0  0
   -2.4896   -1.1827   33.9669 C   0  0  0  0  0  0  0  0  0  0  0  0
   -2.2137   -1.9234   34.8679 O   0  0  0  0  0  0  0  0  0  0  0  0
   -3.9540   -0.8117   33.7509 C   0  0  0  0  0  0  0  0  0  0  0  0
   -4.5497   -0.0016   34.9088 C   0  0  0  0  0  0  0  0  0  0  0  0
   -4.8086   -0.8554   36.1976 C   0  0  0  0  0  0  0  0  0  0  0  0
   -3.9121   -1.0136   37.2724 C   0  0  0  0  0  0  0  0  0  0  0  0
   -4.5791   -1.8487   38.1313 C   0  0  0  0  0  0  0  0  0  0  0  0
   -5.7913   -2.1681   37.6105 O   0  0  0  0  0  0  0  0  0  0  0  0
   -5.9388   -1.5468   36.3799 N   0  0  0  0  0  0  0  0  0  0  0  0
   -5.7974    0.8366   34.4990 C   0  0  0  0  0  0  0  0  0  0  0  0
   -4.8851    1.9737   34.2011 N   0  0  0  0  0  0  0  0  0  0  0  0
   -3.9173    1.3946   35.1691 C   0  0  0  0  0  0  0  0  0  0  0  0
    0.6273   -1.6637   33.1773 C   0  0  0  0  0  0  0  0  0  0  0  0
    0.2054   -2.9398   33.5764 C   0  0  0  0  0  0  0  0  0  0  0  0
    1.1137   -3.9409   33.9445 C   0  0  0  0  0  0  0  0  0  0  0  0
    2.4790   -3.7033   33.8827 C   0  0  0  0  0  0  0  0  0  0  0  0
    2.9311   -2.4778   33.4085 C   0  0  0  0  0  0  0  0  0  0  0  0
    2.0127   -1.4785   33.0349 C   0  0  0  0  0  0  0  0  0  0  0  0
    2.5366   -0.2637   32.3584 C   0  0  0  0  0  0  0  0  0  0  0  0
    3.7421   -0.1940   32.1329 O   0  0  0  0  0  0  0  0  0  0  0  0
    0.0633    1.2295   29.1630 N   0  0  0  0  0  0  0  0  0  0  0  0
   -0.6619    0.9896   28.0437 C   0  0  0  0  0  0  0  0  0  0  0  0
   -1.1328   -0.4297   27.8358 C   0  0  0  0  0  0  0  0  0  0  0  0
   -1.4332   -1.0698   29.0902 O   0  0  0  0  0  0  0  0  0  0  0  0
   -1.0464    1.9169   27.1567 N   0  0  0  0  0  0  0  0  0  0  0  0
   -1.5364    5.1272   27.0467 H   0  0  0  0  0  0  0  0  0  0  0  0
   -1.9993    3.8852   25.8721 H   0  0  0  0  0  0  0  0  0  0  0  0
   -0.3491    4.5463   25.8529 H   0  0  0  0  0  0  0  0  0  0  0  0
    0.2204    4.5591   28.7851 H   0  0  0  0  0  0  0  0  0  0  0  0
    1.7820    4.7195   30.6459 H   0  0  0  0  0  0  0  0  0  0  0  0
    0.0813    4.5963   31.1056 H   0  0  0  0  0  0  0  0  0  0  0  0
    0.6275    3.5402   33.2344 H   0  0  0  0  0  0  0  0  0  0  0  0
    1.3913    5.1157   33.0913 H   0  0  0  0  0  0  0  0  0  0  0  0
    2.6934    2.8150   33.8370 H   0  0  0  0  0  0  0  0  0  0  0  0
    3.5014    4.2232   33.1704 H   0  0  0  0  0  0  0  0  0  0  0  0
    4.0927    2.0336   32.0495 H   0  0  0  0  0  0  0  0  0  0  0  0
    3.6328    3.3267   30.9890 H   0  0  0  0  0  0  0  0  0  0  0  0
    2.5287    1.3241   30.2137 H   0  0  0  0  0  0  0  0  0  0  0  0
   -0.3885    1.3274   31.8880 H   0  0  0  0  0  0  0  0  0  0  0  0
   -2.2149    0.0730   32.4107 H   0  0  0  0  0  0  0  0  0  0  0  0
   -4.0772   -0.2924   32.7978 H   0  0  0  0  0  0  0  0  0  0  0  0
   -4.5174   -1.7437   33.6166 H   0  0  0  0  0  0  0  0  0  0  0  0
   -2.9198   -0.6053   37.4001 H   0  0  0  0  0  0  0  0  0  0  0  0
   -4.3516   -2.2912   39.0901 H   0  0  0  0  0  0  0  0  0  0  0  0
   -6.3629    0.4742   33.6348 H   0  0  0  0  0  0  0  0  0  0  0  0
   -6.5071    1.0618   35.3059 H   0  0  0  0  0  0  0  0  0  0  0  0
   -5.2641    2.8724   34.5142 H   0  0  0  0  0  0  0  0  0  0  0  0
   -2.8693    1.5199   34.8810 H   0  0  0  0  0  0  0  0  0  0  0  0
   -4.0430    1.7883   36.1863 H   0  0  0  0  0  0  0  0  0  0  0  0
   -0.8445   -3.2113   33.5946 H   0  0  0  0  0  0  0  0  0  0  0  0
    0.7404   -4.9092   34.2710 H   0  0  0  0  0  0  0  0  0  0  0  0
    3.1867   -4.4781   34.1645 H   0  0  0  0  0  0  0  0  0  0  0  0
    4.0010   -2.3110   33.2984 H   0  0  0  0  0  0  0  0  0  0  0  0
   -0.3282   -0.9984   27.3683 H   0  0  0  0  0  0  0  0  0  0  0  0
   -2.0277   -0.4650   27.2091 H   0  0  0  0  0  0  0  0  0  0  0  0
   -0.8022   -0.6553   29.7146 H   0  0  0  0  0  0  0  0  0  0  0  0
  1  2  1  0
  2  3  2  0
  3  4  1  0
  4  5  1  0
  5  6  1  0
  6  7  1  0
  7  8  1  0
  8  9  1  0
  9 10  1  0
 10 11  1  0
 11 12  1  0
 12 13  2  0
 13 14  1  0
 14 15  1  0
 15 16  2  0
 15 17  1  0
 17 18  1  0
 18 19  1  0
 19 20  1  0
 20 21  2  0
 21 22  1  0
 22 23  1  0
 18 24  1  0
 24 25  1  0
 25 26  1  0
 13 27  1  0
 27 28  2  0
 28 29  1  0
 29 30  2  0
 30 31  1  0
 31 32  2  0
 32 33  1  0
 33 34  2  0
  4 35  2  0
 35 36  1  0
 36 37  1  0
 37 38  1  0
 36 39  2  0
 39  2  1  0
 10  5  1  0
 33 11  1  0
 26 18  1  0
 32 27  1  0
 23 19  2  0
  1 40  1  0
  1 41  1  0
  1 42  1  0
  3 43  1  0
  6 44  1  0
  6 45  1  0
  7 46  1  0
  7 47  1  0
  8 48  1  0
  8 49  1  0
  9 50  1  0
  9 51  1  0
 10 52  1  0
 12 53  1  0
 14 54  1  0
 17 55  1  0
 17 56  1  0
 20 57  1  0
 21 58  1  0
 24 59  1  0
 24 60  1  0
 25 61  1  0
 26 62  1  0
 26 63  1  0
 28 64  1  0
 29 65  1  0
 30 66  1  0
 31 67  1  0
 37 68  1  0
 37 69  1  0
 38 70  1  0
M  END
>  <Energy>  (999) 
16.94992622207814

>  <compound_id>  (999) 
2278

>  <target_id>  (999) 
1

>  <reference_id>  (999) 
44

>  <inspiration_ids>  (999) 
[44, 136]

>  <energy_score>  (999) 
-83.04658805481535

>  <distance_score>  (999) 
2.721968947665579

>  <path>  (999) 
/opt/xchem-fragalysis-2/maxwin/BulkDock/SCRATCH/505732/C2278-P44/C2278-P44.minimised.mol

>  <scratch_subdir>  (999) 
/opt/xchem-fragalysis-2/maxwin/BulkDock/SCRATCH/505732/C2278-P44

>  <fragmenstein_runtime>  (999) 
30.16517424583435

>  <fragmenstein_outcome>  (999) 
too moved

>  <fragmenstein_mode>  (999) 
expansion

>  <fragmenstein_error>  (999) 


$$$$
C2278-P136
     RDKit          3D

 70 75  0  0  0  0  0  0  0  0999 V2000
    0.0131    5.3864   28.3421 C   0  0  0  0  0  0  0  0  0  0  0  0
   -0.3464    3.9386   28.2389 C   0  0  0  0  0  0  0  0  0  0  0  0
    0.3151    2.9766   28.9829 C   0  0  0  0  0  0  0  0  0  0  0  0
   -0.0348    1.6511   28.7840 C   0  0  0  0  0  0  0  0  0  0  0  0
    0.6609    0.6222   29.4407 N   0  0  0  0  0  0  0  0  0  0  0  0
    0.5187   -0.7072   28.8078 C   0  0  0  0  0  0  0  0  0  0  0  0
   -0.7125   -1.4668   29.2907 C   0  0  0  0  0  0  0  0  0  0  0  0
   -0.7593   -1.5114   30.8115 C   0  0  0  0  0  0  0  0  0  0  0  0
   -0.6612   -0.0979   31.3797 C   0  0  0  0  0  0  0  0  0  0  0  0
    0.6277    0.6431   30.9244 C   0  0  0  0  0  0  0  0  0  0  0  0
    1.8723    0.0651   31.4824 N   0  0  0  0  0  0  0  0  0  0  0  0
    3.0396    0.0059   30.7271 C   0  0  0  0  0  0  0  0  0  0  0  0
    4.1939   -0.5270   31.1648 C   0  0  0  0  0  0  0  0  0  0  0  0
    5.3035   -0.3735   30.3715 N   0  0  0  0  0  0  0  0  0  0  0  0
    6.7154   -0.4312   30.6901 C   0  0  0  0  0  0  0  0  0  0  0  0
    7.2768   -0.7061   31.7129 O   0  0  0  0  0  0  0  0  0  0  0  0
    7.5275   -0.1413   29.4373 C   0  0  0  0  0  0  0  0  0  0  0  0
    7.6291    1.3390   29.0368 C   0  0  0  0  0  0  0  0  0  0  0  0
    9.0995    1.8782   29.0871 C   0  0  0  0  0  0  0  0  0  0  0  0
   10.0995    1.5771   28.1403 C   0  0  0  0  0  0  0  0  0  0  0  0
   11.1981    2.2538   28.6031 C   0  0  0  0  0  0  0  0  0  0  0  0
   10.8814    2.9126   29.7460 O   0  0  0  0  0  0  0  0  0  0  0  0
    9.5523    2.6739   30.0593 N   0  0  0  0  0  0  0  0  0  0  0  0
    6.5749    2.3676   29.5787 C   0  0  0  0  0  0  0  0  0  0  0  0
    5.6798    1.9367   28.4657 N   0  0  0  0  0  0  0  0  0  0  0  0
    6.9095    1.6469   27.6813 C   0  0  0  0  0  0  0  0  0  0  0  0
    4.1569   -1.2211   32.4666 C   0  0  0  0  0  0  0  0  0  0  0  0
    5.0695   -2.2073   32.8588 C   0  0  0  0  0  0  0  0  0  0  0  0
    4.9778   -2.8308   34.1097 C   0  0  0  0  0  0  0  0  0  0  0  0
    3.9482   -2.5017   34.9849 C   0  0  0  0  0  0  0  0  0  0  0  0
    2.9941   -1.5678   34.5969 C   0  0  0  0  0  0  0  0  0  0  0  0
    3.0900   -0.9544   33.3380 C   0  0  0  0  0  0  0  0  0  0  0  0
    1.9628   -0.1132   32.8677 C   0  0  0  0  0  0  0  0  0  0  0  0
    1.1537    0.3251   33.6789 O   0  0  0  0  0  0  0  0  0  0  0  0
   -0.9902    1.3296   27.8967 N   0  0  0  0  0  0  0  0  0  0  0  0
   -1.5808    2.3231   27.2070 C   0  0  0  0  0  0  0  0  0  0  0  0
   -2.5425    1.9633   26.1052 C   0  0  0  0  0  0  0  0  0  0  0  0
   -2.0650    2.4749   24.8524 O   0  0  0  0  0  0  0  0  0  0  0  0
   -1.2829    3.6244   27.3336 N   0  0  0  0  0  0  0  0  0  0  0  0
    0.2397    5.6612   29.3768 H   0  0  0  0  0  0  0  0  0  0  0  0
   -0.8134    6.0178   28.0003 H   0  0  0  0  0  0  0  0  0  0  0  0
    0.8906    5.5957   27.7227 H   0  0  0  0  0  0  0  0  0  0  0  0
    1.1088    3.2563   29.6635 H   0  0  0  0  0  0  0  0  0  0  0  0
    0.5226   -0.6330   27.7141 H   0  0  0  0  0  0  0  0  0  0  0  0
    1.4035   -1.3097   29.0442 H   0  0  0  0  0  0  0  0  0  0  0  0
   -0.6977   -2.4868   28.8904 H   0  0  0  0  0  0  0  0  0  0  0  0
   -1.6270   -0.9955   28.9132 H   0  0  0  0  0  0  0  0  0  0  0  0
    0.0586   -2.1318   31.1960 H   0  0  0  0  0  0  0  0  0  0  0  0
   -1.6964   -1.9775   31.1364 H   0  0  0  0  0  0  0  0  0  0  0  0
   -0.7557   -0.1432   32.4668 H   0  0  0  0  0  0  0  0  0  0  0  0
   -1.5364    0.4618   31.0309 H   0  0  0  0  0  0  0  0  0  0  0  0
    0.5850    1.6684   31.3135 H   0  0  0  0  0  0  0  0  0  0  0  0
    2.9976    0.4824   29.7508 H   0  0  0  0  0  0  0  0  0  0  0  0
    5.1905   -0.0196   29.4214 H   0  0  0  0  0  0  0  0  0  0  0  0
    8.5270   -0.5659   29.6045 H   0  0  0  0  0  0  0  0  0  0  0  0
    7.1145   -0.7475   28.6197 H   0  0  0  0  0  0  0  0  0  0  0  0
   10.0386    0.9595   27.2574 H   0  0  0  0  0  0  0  0  0  0  0  0
   12.2183    2.3668   28.2674 H   0  0  0  0  0  0  0  0  0  0  0  0
    6.1775    2.2047   30.5837 H   0  0  0  0  0  0  0  0  0  0  0  0
    6.8660    3.4246   29.5063 H   0  0  0  0  0  0  0  0  0  0  0  0
    5.1043    2.6914   28.0850 H   0  0  0  0  0  0  0  0  0  0  0  0
    6.8087    0.8169   26.9758 H   0  0  0  0  0  0  0  0  0  0  0  0
    7.2879    2.5196   27.1325 H   0  0  0  0  0  0  0  0  0  0  0  0
    5.8713   -2.5224   32.1974 H   0  0  0  0  0  0  0  0  0  0  0  0
    5.7189   -3.5743   34.3945 H   0  0  0  0  0  0  0  0  0  0  0  0
    3.8806   -2.9838   35.9565 H   0  0  0  0  0  0  0  0  0  0  0  0
    2.1618   -1.3394   35.2586 H   0  0  0  0  0  0  0  0  0  0  0  0
   -2.6326    0.8792   26.0169 H   0  0  0  0  0  0  0  0  0  0  0  0
   -3.5294    2.3901   26.3076 H   0  0  0  0  0  0  0  0  0  0  0  0
   -1.8329    3.4057   25.0479 H   0  0  0  0  0  0  0  0  0  0  0  0
  1  2  1  0
  2  3  2  0
  3  4  1  0
  4  5  1  0
  5  6  1  0
  6  7  1  0
  7  8  1  0
  8  9  1  0
  9 10  1  0
 10 11  1  0
 11 12  1  0
 12 13  2  0
 13 14  1  0
 14 15  1  0
 15 16  2  0
 15 17  1  0
 17 18  1  0
 18 19  1  0
 19 20  1  0
 20 21  2  0
 21 22  1  0
 22 23  1  0
 18 24  1  0
 24 25  1  0
 25 26  1  0
 13 27  1  0
 27 28  2  0
 28 29  1  0
 29 30  2  0
 30 31  1  0
 31 32  2  0
 32 33  1  0
 33 34  2  0
  4 35  2  0
 35 36  1  0
 36 37  1  0
 37 38  1  0
 36 39  2  0
 39  2  1  0
 10  5  1  0
 33 11  1  0
 26 18  1  0
 32 27  1  0
 23 19  2  0
  1 40  1  0
  1 41  1  0
  1 42  1  0
  3 43  1  0
  6 44  1  0
  6 45  1  0
  7 46  1  0
  7 47  1  0
  8 48  1  0
  8 49  1  0
  9 50  1  0
  9 51  1  0
 10 52  1  0
 12 53  1  0
 14 54  1  0
 17 55  1  0
 17 56  1  0
 20 57  1  0
 21 58  1  0
 24 59  1  0
 24 60  1  0
 25 61  1  0
 26 62  1  0
 26 63  1  0
 28 64  1  0
 29 65  1  0
 30 66  1  0
 31 67  1  0
 37 68  1  0
 37 69  1  0
 38 70  1  0
M  END
>  <Energy>  (1000) 
17.576259871232594

>  <compound_id>  (1000) 
2278

>  <target_id>  (1000) 
1

>  <reference_id>  (1000) 
136

>  <inspiration_ids>  (1000) 
[44, 136]

>  <energy_score>  (1000) 
-82.42025440566219

>  <distance_score>  (1000) 
2.6299524474105525

>  <path>  (1000) 
/opt/xchem-fragalysis-2/maxwin/BulkDock/SCRATCH/505732/C2278-P136/C2278-P136.minimised.mol

>  <scratch_subdir>  (1000) 
/opt/xchem-fragalysis-2/maxwin/BulkDock/SCRATCH/505732/C2278-P136

>  <fragmenstein_runtime>  (1000) 
27.72892475128174

>  <fragmenstein_outcome>  (1000) 
too moved

>  <fragmenstein_mode>  (1000) 
expansion

>  <fragmenstein_error>  (1000) 


$$$$
C2288-P44
     RDKit          3D

 43 43  0  0  0  0  0  0  0  0999 V2000
    0.3660    4.1618   24.1871 C   0  0  0  0  0  0  0  0  0  0  0  0
    0.1699    3.7660   25.6423 C   0  0  0  0  0  0  0  0  0  0  0  0
   -1.3084    3.8094   26.0354 C   0  0  0  0  0  0  0  0  0  0  0  0
   -1.5455    3.4427   27.5029 C   0  0  0  0  0  0  0  0  0  0  0  0
   -1.2534    2.0137   27.8131 C   0  0  0  0  0  0  0  0  0  0  0  0
   -0.3648    1.4813   28.7282 C   0  0  0  0  0  0  0  0  0  0  0  0
   -0.5023    0.1337   28.5988 N   0  0  0  0  0  0  0  0  0  0  0  0
    0.4633   -1.0087   29.4278 S   0  0  0  0  0  0  0  0  0  0  0  0
   -0.7875   -2.1171   30.1977 C   0  0  0  0  0  0  0  0  0  0  0  0
   -0.3420   -3.5881   30.0546 C   0  0  0  0  0  0  0  0  0  0  0  0
    0.9812   -3.9471   30.5732 C   0  0  0  0  0  0  0  0  0  0  0  0
    1.9931   -4.3302   30.9936 N   0  0  0  0  0  0  0  0  0  0  0  0
   -1.1916   -1.6060   31.5236 N   0  0  0  0  0  0  0  0  0  0  0  0
   -2.5307   -1.0414   31.5238 C   0  0  0  0  0  0  0  0  0  0  0  0
   -0.8825   -2.4151   32.7225 C   0  0  0  0  0  0  0  0  0  0  0  0
   -1.2057   -1.6166   34.0868 C   0  0  0  0  0  0  0  0  0  0  0  0
   -2.3518   -2.1840   34.8272 N   0  0  0  0  0  0  0  0  0  0  0  0
   -0.4902   -0.6013   34.3281 N   0  0  0  0  0  0  0  0  0  0  0  0
    0.5561   -0.3871   33.4294 O   0  0  0  0  0  0  0  0  0  0  0  0
   -1.4006   -0.1174   27.6107 C   0  0  0  0  0  0  0  0  0  0  0  0
   -1.9084    1.0033   27.1431 N   0  0  0  0  0  0  0  0  0  0  0  0
   -0.1918    3.4962   23.5209 H   0  0  0  0  0  0  0  0  0  0  0  0
    1.4252    4.1038   23.9176 H   0  0  0  0  0  0  0  0  0  0  0  0
    0.0257    5.1871   24.0108 H   0  0  0  0  0  0  0  0  0  0  0  0
    0.7450    4.4460   26.2813 H   0  0  0  0  0  0  0  0  0  0  0  0
    0.5751    2.7600   25.7932 H   0  0  0  0  0  0  0  0  0  0  0  0
   -1.8843    3.1416   25.3822 H   0  0  0  0  0  0  0  0  0  0  0  0
   -1.6903    4.8236   25.8660 H   0  0  0  0  0  0  0  0  0  0  0  0
   -2.5959    3.6369   27.7449 H   0  0  0  0  0  0  0  0  0  0  0  0
   -0.9480    4.0968   28.1490 H   0  0  0  0  0  0  0  0  0  0  0  0
    0.3257    1.9409   29.4202 H   0  0  0  0  0  0  0  0  0  0  0  0
   -1.6712   -2.0724   29.5485 H   0  0  0  0  0  0  0  0  0  0  0  0
   -0.3806   -3.8621   28.9921 H   0  0  0  0  0  0  0  0  0  0  0  0
   -1.0821   -4.2249   30.5479 H   0  0  0  0  0  0  0  0  0  0  0  0
   -2.6902   -0.3909   30.6574 H   0  0  0  0  0  0  0  0  0  0  0  0
   -3.2870   -1.8327   31.5129 H   0  0  0  0  0  0  0  0  0  0  0  0
   -2.7094   -0.4078   32.3977 H   0  0  0  0  0  0  0  0  0  0  0  0
   -1.4443   -3.3539   32.7028 H   0  0  0  0  0  0  0  0  0  0  0  0
    0.1813   -2.6701   32.7620 H   0  0  0  0  0  0  0  0  0  0  0  0
   -2.6145   -3.1050   34.3918 H   0  0  0  0  0  0  0  0  0  0  0  0
   -2.7715   -2.9608   34.2582 H   0  0  0  0  0  0  0  0  0  0  0  0
    0.9782    0.4166   33.7834 H   0  0  0  0  0  0  0  0  0  0  0  0
   -1.6539   -1.1092   27.2611 H   0  0  0  0  0  0  0  0  0  0  0  0
  1  2  1  0
  2  3  1  0
  3  4  1  0
  4  5  1  0
  5  6  2  0
  6  7  1  0
  7  8  1  0
  8  9  1  0
  9 10  1  0
 10 11  1  0
 11 12  3  0
  9 13  1  0
 13 14  1  0
 13 15  1  0
 15 16  1  0
 16 17  1  0
 16 18  2  3
 18 19  1  0
  7 20  1  0
 20 21  2  0
 21  5  1  0
  1 22  1  0
  1 23  1  0
  1 24  1  0
  2 25  1  0
  2 26  1  0
  3 27  1  0
  3 28  1  0
  4 29  1  0
  4 30  1  0
  6 31  1  0
  9 32  1  0
 10 33  1  0
 10 34  1  0
 14 35  1  0
 14 36  1  0
 14 37  1  0
 15 38  1  0
 15 39  1  0
 17 40  1  0
 17 41  1  0
 19 42  1  0
 20 43  1  0
M  END
>  <Energy>  (1001) 
238.30927362883691

>  <compound_id>  (1001) 
2288

>  <target_id>  (1001) 
1

>  <reference_id>  (1001) 
44

>  <inspiration_ids>  (1001) 
[44, 186]

>  <energy_score>  (1001) 
133.48488605346648

>  <distance_score>  (1001) 
3.6739570950826654

>  <path>  (1001) 
/opt/xchem-fragalysis-2/maxwin/BulkDock/SCRATCH/505732/C2288-P44/C2288-P44.minimised.mol

>  <scratch_subdir>  (1001) 
/opt/xchem-fragalysis-2/maxwin/BulkDock/SCRATCH/505732/C2288-P44

>  <fragmenstein_runtime>  (1001) 
8.597373485565186

>  <fragmenstein_outcome>  (1001) 
too moved

>  <fragmenstein_mode>  (1001) 
expansion

>  <fragmenstein_error>  (1001) 


$$$$
C2288-P186
     RDKit          3D

 43 43  0  0  0  0  0  0  0  0999 V2000
    4.4930    1.7006   27.7501 C   0  0  0  0  0  0  0  0  0  0  0  0
    3.4701    2.0544   28.8179 C   0  0  0  0  0  0  0  0  0  0  0  0
    2.4703    3.0960   28.3078 C   0  0  0  0  0  0  0  0  0  0  0  0
    1.4179    3.4762   29.3539 C   0  0  0  0  0  0  0  0  0  0  0  0
    0.4883    2.3583   29.6716 C   0  0  0  0  0  0  0  0  0  0  0  0
    0.3392    1.6417   30.8409 C   0  0  0  0  0  0  0  0  0  0  0  0
   -0.6092    0.7088   30.5496 N   0  0  0  0  0  0  0  0  0  0  0  0
   -1.1055   -0.5285   31.6096 S   0  0  0  0  0  0  0  0  0  0  0  0
   -0.1779   -1.9714   30.8650 C   0  0  0  0  0  0  0  0  0  0  0  0
   -0.2264   -3.1032   31.9135 C   0  0  0  0  0  0  0  0  0  0  0  0
    0.3326   -4.3738   31.4382 C   0  0  0  0  0  0  0  0  0  0  0  0
    0.7923   -5.3953   31.1353 N   0  0  0  0  0  0  0  0  0  0  0  0
    1.1395   -1.5009   30.3730 N   0  0  0  0  0  0  0  0  0  0  0  0
    2.1619   -1.3920   31.4091 C   0  0  0  0  0  0  0  0  0  0  0  0
    1.6593   -2.2844   29.2310 C   0  0  0  0  0  0  0  0  0  0  0  0
    0.6728   -2.1771   28.0431 C   0  0  0  0  0  0  0  0  0  0  0  0
    0.5353   -0.8552   27.4672 N   0  0  0  0  0  0  0  0  0  0  0  0
    0.1049   -3.2621   27.7587 N   0  0  0  0  0  0  0  0  0  0  0  0
   -0.7883   -3.0542   26.6974 O   0  0  0  0  0  0  0  0  0  0  0  0
   -1.0498    0.9024   29.2844 C   0  0  0  0  0  0  0  0  0  0  0  0
   -0.3848    1.8874   28.7205 N   0  0  0  0  0  0  0  0  0  0  0  0
    4.0044    1.2759   26.8673 H   0  0  0  0  0  0  0  0  0  0  0  0
    5.2020    0.9605   28.1341 H   0  0  0  0  0  0  0  0  0  0  0  0
    5.0588    2.5847   27.4398 H   0  0  0  0  0  0  0  0  0  0  0  0
    3.9892    2.4405   29.7026 H   0  0  0  0  0  0  0  0  0  0  0  0
    2.9510    1.1388   29.1203 H   0  0  0  0  0  0  0  0  0  0  0  0
    1.9796    2.7197   27.4017 H   0  0  0  0  0  0  0  0  0  0  0  0
    3.0162    4.0028   28.0193 H   0  0  0  0  0  0  0  0  0  0  0  0
    0.8264    4.3176   28.9722 H   0  0  0  0  0  0  0  0  0  0  0  0
    1.9111    3.8276   30.2680 H   0  0  0  0  0  0  0  0  0  0  0  0
    0.8372    1.7014   31.7973 H   0  0  0  0  0  0  0  0  0  0  0  0
   -0.8192   -2.2609   30.0270 H   0  0  0  0  0  0  0  0  0  0  0  0
   -1.2702   -3.2911   32.2002 H   0  0  0  0  0  0  0  0  0  0  0  0
    0.2921   -2.8070   32.8340 H   0  0  0  0  0  0  0  0  0  0  0  0
    2.4948   -2.3692   31.7751 H   0  0  0  0  0  0  0  0  0  0  0  0
    3.0404   -0.8665   31.0171 H   0  0  0  0  0  0  0  0  0  0  0  0
    1.8148   -0.8053   32.2657 H   0  0  0  0  0  0  0  0  0  0  0  0
    2.6092   -1.8562   28.8857 H   0  0  0  0  0  0  0  0  0  0  0  0
    1.8473   -3.3313   29.4846 H   0  0  0  0  0  0  0  0  0  0  0  0
    1.0796   -0.1769   28.0478 H   0  0  0  0  0  0  0  0  0  0  0  0
    1.2607   -0.2303   27.8834 H   0  0  0  0  0  0  0  0  0  0  0  0
   -1.4737   -3.7394   26.8499 H   0  0  0  0  0  0  0  0  0  0  0  0
   -1.7990    0.2898   28.8020 H   0  0  0  0  0  0  0  0  0  0  0  0
  1  2  1  0
  2  3  1  0
  3  4  1  0
  4  5  1  0
  5  6  2  0
  6  7  1  0
  7  8  1  0
  8  9  1  0
  9 10  1  0
 10 11  1  0
 11 12  3  0
  9 13  1  0
 13 14  1  0
 13 15  1  0
 15 16  1  0
 16 17  1  0
 16 18  2  3
 18 19  1  0
  7 20  1  0
 20 21  2  0
 21  5  1  0
  1 22  1  0
  1 23  1  0
  1 24  1  0
  2 25  1  0
  2 26  1  0
  3 27  1  0
  3 28  1  0
  4 29  1  0
  4 30  1  0
  6 31  1  0
  9 32  1  0
 10 33  1  0
 10 34  1  0
 14 35  1  0
 14 36  1  0
 14 37  1  0
 15 38  1  0
 15 39  1  0
 17 40  1  0
 17 41  1  0
 19 42  1  0
 20 43  1  0
M  END
>  <Energy>  (1002) 
208.33299899252231

>  <compound_id>  (1002) 
2288

>  <target_id>  (1002) 
1

>  <reference_id>  (1002) 
186

>  <inspiration_ids>  (1002) 
[44, 186]

>  <energy_score>  (1002) 
103.50861141715387

>  <distance_score>  (1002) 
2.614568076105234

>  <path>  (1002) 
/opt/xchem-fragalysis-2/maxwin/BulkDock/SCRATCH/505732/C2288-P186/C2288-P186.minimised.mol

>  <scratch_subdir>  (1002) 
/opt/xchem-fragalysis-2/maxwin/BulkDock/SCRATCH/505732/C2288-P186

>  <fragmenstein_runtime>  (1002) 
6.058289289474487

>  <fragmenstein_outcome>  (1002) 
too moved

>  <fragmenstein_mode>  (1002) 
expansion

>  <fragmenstein_error>  (1002) 


$$$$
C2295-P44
     RDKit          3D

 33 34  0  0  0  0  0  0  0  0999 V2000
   -1.0433    3.6899   27.6108 C   0  0  0  0  0  0  0  0  0  0  0  0
   -1.3525    2.4741   26.8395 N   0  0  0  0  0  0  0  0  0  0  0  0
   -2.4893    2.7828   25.9094 C   0  0  0  0  0  0  0  0  0  0  0  0
   -2.0037    3.5408   24.6075 C   0  0  0  0  0  0  0  0  0  0  0  0
   -2.9793    3.4037   23.5241 N   0  0  0  0  0  0  0  0  0  0  0  0
   -0.9588    4.1325   24.6460 O   0  0  0  0  0  0  0  0  0  0  0  0
   -1.6181    1.3560   27.7671 C   0  0  0  0  0  0  0  0  0  0  0  0
   -2.0928   -0.1798   26.9423 S   0  0  0  0  0  0  0  0  0  0  0  0
   -1.8324   -1.1466   28.2470 N   0  0  0  0  0  0  0  0  0  0  0  0
   -0.8403   -0.6208   29.1799 C   0  0  0  0  0  0  0  0  0  0  0  0
   -1.4382   -0.5723   30.5872 C   0  0  0  0  0  0  0  0  0  0  0  0
   -0.2636   -0.4674   31.4622 N   0  0  0  0  0  0  0  0  0  0  0  0
    0.8122   -1.2093   30.8061 N   0  0  0  0  0  0  0  0  0  0  0  0
    0.3204   -1.5825   29.4684 C   0  0  0  0  0  0  0  0  0  0  0  0
   -0.4568    0.8288   28.6776 C   0  0  0  0  0  0  0  0  0  0  0  0
    0.8469    0.8423   27.9856 C   0  0  0  0  0  0  0  0  0  0  0  0
    1.9164    0.8319   27.5327 N   0  0  0  0  0  0  0  0  0  0  0  0
   -0.7894    4.5390   26.9709 H   0  0  0  0  0  0  0  0  0  0  0  0
   -1.8879    3.9899   28.2402 H   0  0  0  0  0  0  0  0  0  0  0  0
   -0.1730    3.5401   28.2574 H   0  0  0  0  0  0  0  0  0  0  0  0
   -3.2625    3.3831   26.4004 H   0  0  0  0  0  0  0  0  0  0  0  0
   -2.9609    1.8630   25.5649 H   0  0  0  0  0  0  0  0  0  0  0  0
   -3.7178    2.7134   23.8118 H   0  0  0  0  0  0  0  0  0  0  0  0
   -3.8314    2.9101   23.8896 H   0  0  0  0  0  0  0  0  0  0  0  0
   -2.4624    1.6236   28.4113 H   0  0  0  0  0  0  0  0  0  0  0  0
   -1.6572   -2.1150   27.9560 H   0  0  0  0  0  0  0  0  0  0  0  0
   -1.9849   -1.4959   30.8240 H   0  0  0  0  0  0  0  0  0  0  0  0
   -2.1230    0.2636   30.7383 H   0  0  0  0  0  0  0  0  0  0  0  0
   -0.4764   -0.8796   32.3770 H   0  0  0  0  0  0  0  0  0  0  0  0
    1.6465   -0.6182   30.7023 H   0  0  0  0  0  0  0  0  0  0  0  0
    1.1171   -1.5887   28.7201 H   0  0  0  0  0  0  0  0  0  0  0  0
   -0.0431   -2.6176   29.5310 H   0  0  0  0  0  0  0  0  0  0  0  0
   -0.3651    1.5130   29.5312 H   0  0  0  0  0  0  0  0  0  0  0  0
  1  2  1  0
  2  3  1  0
  3  4  1  0
  4  5  1  0
  4  6  2  0
  2  7  1  0
  7  8  1  0
  8  9  1  0
  9 10  1  0
 10 11  1  0
 11 12  1  0
 12 13  1  0
 13 14  1  0
 10 15  1  0
 15 16  1  0
 16 17  3  0
 15  7  1  0
 14 10  1  0
  1 18  1  0
  1 19  1  0
  1 20  1  0
  3 21  1  0
  3 22  1  0
  5 23  1  0
  5 24  1  0
  7 25  1  0
  9 26  1  0
 11 27  1  0
 11 28  1  0
 12 29  1  0
 13 30  1  0
 14 31  1  0
 14 32  1  0
 15 33  1  0
M  END
>  <Energy>  (1003) 
288.81513295392182

>  <compound_id>  (1003) 
2295

>  <target_id>  (1003) 
1

>  <reference_id>  (1003) 
44

>  <inspiration_ids>  (1003) 
[44, 198]

>  <energy_score>  (1003) 
88.87379064394543

>  <distance_score>  (1003) 
3.094433568761775

>  <path>  (1003) 
/opt/xchem-fragalysis-2/maxwin/BulkDock/SCRATCH/505732/C2295-P44/C2295-P44.minimised.mol

>  <scratch_subdir>  (1003) 
/opt/xchem-fragalysis-2/maxwin/BulkDock/SCRATCH/505732/C2295-P44

>  <fragmenstein_runtime>  (1003) 
2.555846691131592

>  <fragmenstein_outcome>  (1003) 
too moved

>  <fragmenstein_mode>  (1003) 
expansion

>  <fragmenstein_error>  (1003) 


$$$$
C2295-P198
     RDKit          3D

 33 34  0  0  0  0  0  0  0  0999 V2000
   -1.7227    3.8576   27.4226 C   0  0  0  0  0  0  0  0  0  0  0  0
   -0.8289    3.1670   28.3569 N   0  0  0  0  0  0  0  0  0  0  0  0
    0.5631    3.5993   28.1700 C   0  0  0  0  0  0  0  0  0  0  0  0
    1.2729    3.6254   29.5481 C   0  0  0  0  0  0  0  0  0  0  0  0
    0.4002    4.2296   30.5366 N   0  0  0  0  0  0  0  0  0  0  0  0
    2.3817    3.1830   29.6529 O   0  0  0  0  0  0  0  0  0  0  0  0
   -1.0965    1.7138   28.4875 C   0  0  0  0  0  0  0  0  0  0  0  0
   -1.8303    0.8438   27.0651 S   0  0  0  0  0  0  0  0  0  0  0  0
   -1.7219   -0.6569   27.7780 N   0  0  0  0  0  0  0  0  0  0  0  0
   -0.8477   -0.7254   28.9610 C   0  0  0  0  0  0  0  0  0  0  0  0
   -1.6606   -0.9473   30.2433 C   0  0  0  0  0  0  0  0  0  0  0  0
   -0.6526   -1.3807   31.2217 N   0  0  0  0  0  0  0  0  0  0  0  0
    0.3389   -2.1543   30.4799 N   0  0  0  0  0  0  0  0  0  0  0  0
    0.0222   -1.9896   29.0484 C   0  0  0  0  0  0  0  0  0  0  0  0
   -0.0871    0.6499   29.0292 C   0  0  0  0  0  0  0  0  0  0  0  0
    1.1560    0.5625   28.2425 C   0  0  0  0  0  0  0  0  0  0  0  0
    2.1376    0.4465   27.6335 N   0  0  0  0  0  0  0  0  0  0  0  0
   -1.6521    4.9406   27.5748 H   0  0  0  0  0  0  0  0  0  0  0  0
   -1.4698    3.6530   26.3764 H   0  0  0  0  0  0  0  0  0  0  0  0
   -2.7699    3.5974   27.5963 H   0  0  0  0  0  0  0  0  0  0  0  0
    0.6107    4.6376   27.8138 H   0  0  0  0  0  0  0  0  0  0  0  0
    1.1055    3.0005   27.4364 H   0  0  0  0  0  0  0  0  0  0  0  0
   -0.5442    4.3915   30.1062 H   0  0  0  0  0  0  0  0  0  0  0  0
   -0.4533    4.6075   30.0548 H   0  0  0  0  0  0  0  0  0  0  0  0
   -1.9291    1.7011   29.1963 H   0  0  0  0  0  0  0  0  0  0  0  0
   -1.4806   -1.3641   27.0708 H   0  0  0  0  0  0  0  0  0  0  0  0
   -2.3927   -1.7520   30.1112 H   0  0  0  0  0  0  0  0  0  0  0  0
   -2.1913   -0.0593   30.5977 H   0  0  0  0  0  0  0  0  0  0  0  0
   -1.0954   -1.9540   31.9477 H   0  0  0  0  0  0  0  0  0  0  0  0
    1.2824   -1.7901   30.6598 H   0  0  0  0  0  0  0  0  0  0  0  0
    0.9266   -1.9759   28.4355 H   0  0  0  0  0  0  0  0  0  0  0  0
   -0.5511   -2.8719   28.7326 H   0  0  0  0  0  0  0  0  0  0  0  0
    0.1737    0.9107   30.0623 H   0  0  0  0  0  0  0  0  0  0  0  0
  1  2  1  0
  2  3  1  0
  3  4  1  0
  4  5  1  0
  4  6  2  0
  2  7  1  0
  7  8  1  0
  8  9  1  0
  9 10  1  0
 10 11  1  0
 11 12  1  0
 12 13  1  0
 13 14  1  0
 10 15  1  0
 15 16  1  0
 16 17  3  0
 15  7  1  0
 14 10  1  0
  1 18  1  0
  1 19  1  0
  1 20  1  0
  3 21  1  0
  3 22  1  0
  5 23  1  0
  5 24  1  0
  7 25  1  0
  9 26  1  0
 11 27  1  0
 11 28  1  0
 12 29  1  0
 13 30  1  0
 14 31  1  0
 14 32  1  0
 15 33  1  0
M  END
>  <Energy>  (1004) 
279.35447979435042

>  <compound_id>  (1004) 
2295

>  <target_id>  (1004) 
1

>  <reference_id>  (1004) 
198

>  <inspiration_ids>  (1004) 
[44, 198]

>  <energy_score>  (1004) 
79.41313748437716

>  <distance_score>  (1004) 
2.2097585682816976

>  <path>  (1004) 
/opt/xchem-fragalysis-2/maxwin/BulkDock/SCRATCH/505732/C2295-P198/C2295-P198.minimised.mol

>  <scratch_subdir>  (1004) 
/opt/xchem-fragalysis-2/maxwin/BulkDock/SCRATCH/505732/C2295-P198

>  <fragmenstein_runtime>  (1004) 
2.31528377532959

>  <fragmenstein_outcome>  (1004) 
too moved

>  <fragmenstein_mode>  (1004) 
expansion

>  <fragmenstein_error>  (1004) 


$$$$
C2296-P44
     RDKit          3D

 62 64  0  0  0  0  0  0  0  0999 V2000
   -2.0635   -3.3053   40.4378 C   0  0  0  0  0  0  0  0  0  0  0  0
   -1.9346   -2.8632   39.0180 C   0  0  0  0  0  0  0  0  0  0  0  0
   -2.4199   -1.6706   38.6889 N   0  0  0  0  0  0  0  0  0  0  0  0
   -2.1622   -1.4023   37.0879 S   0  0  0  0  0  0  0  0  0  0  0  0
   -1.3654   -2.9107   36.7320 C   0  0  0  0  0  0  0  0  0  0  0  0
   -0.9353   -3.2889   35.4617 N   0  0  0  0  0  0  0  0  0  0  0  0
   -1.2629   -2.4134   34.2980 C   0  0  0  0  0  0  0  0  0  0  0  0
   -0.5895   -1.1431   34.0943 N   0  0  0  0  0  0  0  0  0  0  0  0
    0.4303   -1.2120   33.0754 C   0  0  0  0  0  0  0  0  0  0  0  0
   -0.1381   -0.9164   31.7820 N   0  0  0  0  0  0  0  0  0  0  0  0
   -0.6880   -1.9841   30.8279 S   0  0  0  0  0  0  0  0  0  0  0  0
   -1.9575   -2.6517   31.0578 O   0  0  0  0  0  0  0  0  0  0  0  0
   -0.7080   -1.3608   29.1687 C   0  0  0  0  0  0  0  0  0  0  0  0
    0.5713   -0.7067   28.6744 C   0  0  0  0  0  0  0  0  0  0  0  0
    0.0656    0.3076   27.6695 C   0  0  0  0  0  0  0  0  0  0  0  0
   -1.0801    0.8789   28.3620 N   0  0  0  0  0  0  0  0  0  0  0  0
   -1.9658    1.6811   27.5118 C   0  0  0  0  0  0  0  0  0  0  0  0
   -1.2928    2.8396   26.8604 C   0  0  0  0  0  0  0  0  0  0  0  0
   -1.5648    3.3049   25.5892 C   0  0  0  0  0  0  0  0  0  0  0  0
   -0.7768    4.3638   25.2921 O   0  0  0  0  0  0  0  0  0  0  0  0
    0.0260    4.6505   26.3793 N   0  0  0  0  0  0  0  0  0  0  0  0
   -0.3237    3.7661   27.3172 C   0  0  0  0  0  0  0  0  0  0  0  0
    0.4817    3.7885   29.0194 Br  0  0  0  0  0  0  0  0  0  0  0  0
   -1.7737   -0.2831   28.9616 C   0  0  0  0  0  0  0  0  0  0  0  0
    0.4516   -3.2725   30.9356 N   0  0  0  0  0  0  0  0  0  0  0  0
    1.7909   -3.1284   30.3799 C   0  0  0  0  0  0  0  0  0  0  0  0
   -0.0040   -4.6437   30.7197 C   0  0  0  0  0  0  0  0  0  0  0  0
    0.3915   -3.9677   35.3352 C   0  0  0  0  0  0  0  0  0  0  0  0
    0.2835   -5.2629   34.4847 C   0  0  0  0  0  0  0  0  0  0  0  0
   -1.1050   -5.6399   34.3257 N   0  0  0  0  0  0  0  0  0  0  0  0
    1.2878   -5.8013   34.1074 O   0  0  0  0  0  0  0  0  0  0  0  0
   -1.3352   -3.6055   37.9445 C   0  0  0  0  0  0  0  0  0  0  0  0
   -0.8236   -4.9293   38.1170 C   0  0  0  0  0  0  0  0  0  0  0  0
   -0.4072   -6.0063   38.2293 N   0  0  0  0  0  0  0  0  0  0  0  0
   -1.1086   -3.1766   40.9575 H   0  0  0  0  0  0  0  0  0  0  0  0
   -2.3506   -4.3590   40.5002 H   0  0  0  0  0  0  0  0  0  0  0  0
   -2.8232   -2.7235   40.9707 H   0  0  0  0  0  0  0  0  0  0  0  0
   -2.3400   -2.2021   34.3435 H   0  0  0  0  0  0  0  0  0  0  0  0
   -1.1860   -3.0426   33.4080 H   0  0  0  0  0  0  0  0  0  0  0  0
   -1.2555   -0.4876   33.6899 H   0  0  0  0  0  0  0  0  0  0  0  0
    1.1449   -0.4092   33.2935 H   0  0  0  0  0  0  0  0  0  0  0  0
    1.0257   -2.1262   33.0999 H   0  0  0  0  0  0  0  0  0  0  0  0
   -0.9434   -2.2213   28.5286 H   0  0  0  0  0  0  0  0  0  0  0  0
    1.2459   -1.4208   28.1955 H   0  0  0  0  0  0  0  0  0  0  0  0
    1.1205   -0.2035   29.4779 H   0  0  0  0  0  0  0  0  0  0  0  0
   -0.2590   -0.1942   26.7610 H   0  0  0  0  0  0  0  0  0  0  0  0
    0.8434    1.0340   27.4210 H   0  0  0  0  0  0  0  0  0  0  0  0
   -2.7785    2.0757   28.1223 H   0  0  0  0  0  0  0  0  0  0  0  0
   -2.4233    1.0496   26.7381 H   0  0  0  0  0  0  0  0  0  0  0  0
   -2.2574    3.0128   24.8126 H   0  0  0  0  0  0  0  0  0  0  0  0
   -2.5168   -0.6903   28.2671 H   0  0  0  0  0  0  0  0  0  0  0  0
   -2.2852    0.0158   29.8813 H   0  0  0  0  0  0  0  0  0  0  0  0
    1.7998   -3.2923   29.2980 H   0  0  0  0  0  0  0  0  0  0  0  0
    2.4826   -3.8448   30.8382 H   0  0  0  0  0  0  0  0  0  0  0  0
    2.2038   -2.1367   30.5888 H   0  0  0  0  0  0  0  0  0  0  0  0
    0.7742   -5.3762   30.9630 H   0  0  0  0  0  0  0  0  0  0  0  0
   -0.8515   -4.8809   31.3696 H   0  0  0  0  0  0  0  0  0  0  0  0
   -0.3092   -4.7906   29.6804 H   0  0  0  0  0  0  0  0  0  0  0  0
    1.1202   -3.3047   34.8629 H   0  0  0  0  0  0  0  0  0  0  0  0
    0.8195   -4.2471   36.3009 H   0  0  0  0  0  0  0  0  0  0  0  0
   -1.7030   -4.9883   34.8914 H   0  0  0  0  0  0  0  0  0  0  0  0
   -1.7140   -4.8634   34.6869 H   0  0  0  0  0  0  0  0  0  0  0  0
  1  2  1  0
  2  3  2  0
  3  4  1  0
  4  5  1  0
  5  6  1  0
  6  7  1  0
  7  8  1  0
  8  9  1  0
  9 10  1  0
 10 11  2  0
 11 12  2  0
 11 13  1  0
 13 14  1  0
 14 15  1  0
 15 16  1  0
 16 17  1  0
 17 18  1  0
 18 19  2  0
 19 20  1  0
 20 21  1  0
 21 22  2  0
 22 23  1  0
 16 24  1  0
 11 25  1  0
 25 26  1  0
 25 27  1  0
  6 28  1  0
 28 29  1  0
 29 30  1  0
 29 31  2  0
  5 32  2  0
 32 33  1  0
 33 34  3  0
 32  2  1  0
 24 13  1  0
 22 18  1  0
  1 35  1  0
  1 36  1  0
  1 37  1  0
  7 38  1  0
  7 39  1  0
  8 40  1  0
  9 41  1  0
  9 42  1  0
 13 43  1  0
 14 44  1  0
 14 45  1  0
 15 46  1  0
 15 47  1  0
 17 48  1  0
 17 49  1  0
 19 50  1  0
 24 51  1  0
 24 52  1  0
 26 53  1  0
 26 54  1  0
 26 55  1  0
 27 56  1  0
 27 57  1  0
 27 58  1  0
 28 59  1  0
 28 60  1  0
 30 61  1  0
 30 62  1  0
M  END
>  <Energy>  (1005) 
24.516440494074228

>  <compound_id>  (1005) 
2296

>  <target_id>  (1005) 
1

>  <reference_id>  (1005) 
44

>  <inspiration_ids>  (1005) 
[44, 199]

>  <energy_score>  (1005) 
68.08653935948884

>  <distance_score>  (1005) 
1.8025118994931564

>  <path>  (1005) 
/opt/xchem-fragalysis-2/maxwin/BulkDock/SCRATCH/505732/C2296-P44/C2296-P44.minimised.mol

>  <scratch_subdir>  (1005) 
/opt/xchem-fragalysis-2/maxwin/BulkDock/SCRATCH/505732/C2296-P44

>  <fragmenstein_runtime>  (1005) 
13.764151573181152

>  <fragmenstein_outcome>  (1005) 
too moved

>  <fragmenstein_mode>  (1005) 
expansion

>  <fragmenstein_error>  (1005) 


$$$$
C2296-P199
     RDKit          3D

 62 64  0  0  0  0  0  0  0  0999 V2000
   -7.7838    0.3250   38.9326 C   0  0  0  0  0  0  0  0  0  0  0  0
   -7.2797    0.4139   37.5300 C   0  0  0  0  0  0  0  0  0  0  0  0
   -7.8694   -0.3363   36.6033 N   0  0  0  0  0  0  0  0  0  0  0  0
   -7.1606   -0.0509   35.1469 S   0  0  0  0  0  0  0  0  0  0  0  0
   -5.9553    1.0793   35.7109 C   0  0  0  0  0  0  0  0  0  0  0  0
   -5.0346    1.6283   34.8208 N   0  0  0  0  0  0  0  0  0  0  0  0
   -4.0949    0.6206   34.2375 C   0  0  0  0  0  0  0  0  0  0  0  0
   -4.5152    0.0373   32.9723 N   0  0  0  0  0  0  0  0  0  0  0  0
   -3.6471   -1.0667   32.5744 C   0  0  0  0  0  0  0  0  0  0  0  0
   -2.4058   -0.5638   32.0103 N   0  0  0  0  0  0  0  0  0  0  0  0
   -1.8801   -1.2659   30.7347 S   0  0  0  0  0  0  0  0  0  0  0  0
   -2.5685   -2.3827   30.1306 O   0  0  0  0  0  0  0  0  0  0  0  0
   -1.6227    0.0071   29.5301 C   0  0  0  0  0  0  0  0  0  0  0  0
   -0.2847    0.7356   29.5875 C   0  0  0  0  0  0  0  0  0  0  0  0
    0.0621    1.0187   28.1257 C   0  0  0  0  0  0  0  0  0  0  0  0
   -1.1606    0.7910   27.3389 N   0  0  0  0  0  0  0  0  0  0  0  0
   -2.0632    1.9652   27.2862 C   0  0  0  0  0  0  0  0  0  0  0  0
   -1.5361    3.0356   26.3897 C   0  0  0  0  0  0  0  0  0  0  0  0
   -1.7351    3.1676   25.0320 C   0  0  0  0  0  0  0  0  0  0  0  0
   -1.1144    4.2751   24.5612 O   0  0  0  0  0  0  0  0  0  0  0  0
   -0.5220    4.9436   25.6147 N   0  0  0  0  0  0  0  0  0  0  0  0
   -0.8207    4.2201   26.6947 C   0  0  0  0  0  0  0  0  0  0  0  0
   -0.3251    4.7910   28.4161 Br  0  0  0  0  0  0  0  0  0  0  0  0
   -1.7749   -0.3626   28.0663 C   0  0  0  0  0  0  0  0  0  0  0  0
   -0.3754   -1.9585   31.2094 N   0  0  0  0  0  0  0  0  0  0  0  0
    0.3219   -2.7801   30.2142 C   0  0  0  0  0  0  0  0  0  0  0  0
   -0.3072   -2.6409   32.5020 C   0  0  0  0  0  0  0  0  0  0  0  0
   -4.3365    2.9052   35.1509 C   0  0  0  0  0  0  0  0  0  0  0  0
   -5.2737    4.1361   35.2657 C   0  0  0  0  0  0  0  0  0  0  0  0
   -6.4636    3.9796   34.4597 N   0  0  0  0  0  0  0  0  0  0  0  0
   -4.8925    5.0644   35.9230 O   0  0  0  0  0  0  0  0  0  0  0  0
   -6.1816    1.2267   37.0772 C   0  0  0  0  0  0  0  0  0  0  0  0
   -5.4036    2.0172   37.9785 C   0  0  0  0  0  0  0  0  0  0  0  0
   -4.7639    2.6178   38.7367 N   0  0  0  0  0  0  0  0  0  0  0  0
   -8.0709    1.3159   39.2990 H   0  0  0  0  0  0  0  0  0  0  0  0
   -7.0084   -0.0804   39.5905 H   0  0  0  0  0  0  0  0  0  0  0  0
   -8.6615   -0.3261   39.0053 H   0  0  0  0  0  0  0  0  0  0  0  0
   -3.9215   -0.1674   34.9851 H   0  0  0  0  0  0  0  0  0  0  0  0
   -3.1138    1.0884   34.0897 H   0  0  0  0  0  0  0  0  0  0  0  0
   -5.4361   -0.3635   33.1368 H   0  0  0  0  0  0  0  0  0  0  0  0
   -3.4394   -1.7502   33.4060 H   0  0  0  0  0  0  0  0  0  0  0  0
   -4.2136   -1.6491   31.8403 H   0  0  0  0  0  0  0  0  0  0  0  0
   -2.4257    0.7157   29.7481 H   0  0  0  0  0  0  0  0  0  0  0  0
   -0.3762    1.6657   30.1555 H   0  0  0  0  0  0  0  0  0  0  0  0
    0.5186    0.1584   30.0514 H   0  0  0  0  0  0  0  0  0  0  0  0
    0.8131    0.2881   27.7962 H   0  0  0  0  0  0  0  0  0  0  0  0
    0.5276    1.9943   27.9808 H   0  0  0  0  0  0  0  0  0  0  0  0
   -2.2677    2.3799   28.2745 H   0  0  0  0  0  0  0  0  0  0  0  0
   -3.0318    1.6447   26.8812 H   0  0  0  0  0  0  0  0  0  0  0  0
   -2.2767    2.6061   24.2896 H   0  0  0  0  0  0  0  0  0  0  0  0
   -2.8090   -0.5422   27.7654 H   0  0  0  0  0  0  0  0  0  0  0  0
   -1.2171   -1.2755   27.8300 H   0  0  0  0  0  0  0  0  0  0  0  0
   -0.1936   -3.7314   30.0420 H   0  0  0  0  0  0  0  0  0  0  0  0
    1.3505   -2.9912   30.5271 H   0  0  0  0  0  0  0  0  0  0  0  0
    0.3944   -2.2552   29.2572 H   0  0  0  0  0  0  0  0  0  0  0  0
   -0.6148   -1.9783   33.3171 H   0  0  0  0  0  0  0  0  0  0  0  0
   -0.9507   -3.5274   32.5180 H   0  0  0  0  0  0  0  0  0  0  0  0
    0.7175   -2.9498   32.7381 H   0  0  0  0  0  0  0  0  0  0  0  0
   -3.7382    2.7997   36.0606 H   0  0  0  0  0  0  0  0  0  0  0  0
   -3.6476    3.1625   34.3367 H   0  0  0  0  0  0  0  0  0  0  0  0
   -6.4035    3.0710   33.9325 H   0  0  0  0  0  0  0  0  0  0  0  0
   -6.5213    2.9846   34.1234 H   0  0  0  0  0  0  0  0  0  0  0  0
  1  2  1  0
  2  3  2  0
  3  4  1  0
  4  5  1  0
  5  6  1  0
  6  7  1  0
  7  8  1  0
  8  9  1  0
  9 10  1  0
 10 11  2  0
 11 12  2  0
 11 13  1  0
 13 14  1  0
 14 15  1  0
 15 16  1  0
 16 17  1  0
 17 18  1  0
 18 19  2  0
 19 20  1  0
 20 21  1  0
 21 22  2  0
 22 23  1  0
 16 24  1  0
 11 25  1  0
 25 26  1  0
 25 27  1  0
  6 28  1  0
 28 29  1  0
 29 30  1  0
 29 31  2  0
  5 32  2  0
 32 33  1  0
 33 34  3  0
 32  2  1  0
 24 13  1  0
 22 18  1  0
  1 35  1  0
  1 36  1  0
  1 37  1  0
  7 38  1  0
  7 39  1  0
  8 40  1  0
  9 41  1  0
  9 42  1  0
 13 43  1  0
 14 44  1  0
 14 45  1  0
 15 46  1  0
 15 47  1  0
 17 48  1  0
 17 49  1  0
 19 50  1  0
 24 51  1  0
 24 52  1  0
 26 53  1  0
 26 54  1  0
 26 55  1  0
 27 56  1  0
 27 57  1  0
 27 58  1  0
 28 59  1  0
 28 60  1  0
 30 61  1  0
 30 62  1  0
M  END
>  <Energy>  (1006) 
27.31165281399997

>  <compound_id>  (1006) 
2296

>  <target_id>  (1006) 
1

>  <reference_id>  (1006) 
199

>  <inspiration_ids>  (1006) 
[44, 199]

>  <energy_score>  (1006) 
70.88175167941452

>  <distance_score>  (1006) 
1.6550153649944077

>  <path>  (1006) 
/opt/xchem-fragalysis-2/maxwin/BulkDock/SCRATCH/505732/C2296-P199/C2296-P199.minimised.mol

>  <scratch_subdir>  (1006) 
/opt/xchem-fragalysis-2/maxwin/BulkDock/SCRATCH/505732/C2296-P199

>  <fragmenstein_runtime>  (1006) 
14.333075284957886

>  <fragmenstein_outcome>  (1006) 
too moved

>  <fragmenstein_mode>  (1006) 
expansion

>  <fragmenstein_error>  (1006) 


$$$$
C2304-P45
     RDKit          3D

 43 45  0  0  0  0  0  0  0  0999 V2000
   -5.5141  -24.9832   26.7043 C   0  0  0  0  0  0  0  0  0  0  0  0
   -6.3201  -25.4771   27.7194 O   0  0  0  0  0  0  0  0  0  0  0  0
   -7.7370  -25.4987   27.7365 C   0  0  0  0  0  0  0  0  0  0  0  0
   -8.3253  -24.1186   27.9534 C   0  0  0  0  0  0  0  0  0  0  0  0
   -7.3633  -22.9926   27.6714 C   0  0  0  0  0  0  0  0  0  0  0  0
   -9.6017  -24.0254   27.2278 N   0  0  0  0  0  0  0  0  0  0  0  0
  -10.4382  -25.0866   27.4689 C   0  0  0  0  0  0  0  0  0  0  0  0
  -11.4407  -25.1401   28.2632 N   0  0  0  0  0  0  0  0  0  0  0  0
  -11.4397  -24.1076   29.1754 C   0  0  0  0  0  0  0  0  0  0  0  0
  -11.9710  -22.8715   28.9342 C   0  0  0  0  0  0  0  0  0  0  0  0
  -12.0225  -21.9598   29.9750 C   0  0  0  0  0  0  0  0  0  0  0  0
  -11.6163  -22.2928   31.2718 C   0  0  0  0  0  0  0  0  0  0  0  0
  -10.9980  -23.5200   31.4694 C   0  0  0  0  0  0  0  0  0  0  0  0
  -10.5593  -24.0563   32.7216 C   0  0  0  0  0  0  0  0  0  0  0  0
  -10.1327  -24.7021   33.5829 N   0  0  0  0  0  0  0  0  0  0  0  0
  -10.7959  -24.3529   30.3718 C   0  0  0  0  0  0  0  0  0  0  0  0
   -9.9668  -26.3878   26.9195 C   0  0  0  0  0  0  0  0  0  0  0  0
   -8.4918  -26.3247   26.7749 N   0  0  0  0  0  0  0  0  0  0  0  0
   -7.9593  -27.6077   26.6710 C   0  0  0  0  0  0  0  0  0  0  0  0
   -6.6309  -27.6564   26.7417 N   0  0  0  0  0  0  0  0  0  0  0  0
   -6.0075  -28.5958   26.0703 C   0  0  0  0  0  0  0  0  0  0  0  0
   -6.6941  -29.6153   25.4529 C   0  0  0  0  0  0  0  0  0  0  0  0
   -8.0558  -29.7362   25.6260 C   0  0  0  0  0  0  0  0  0  0  0  0
   -8.6992  -28.7185   26.2578 C   0  0  0  0  0  0  0  0  0  0  0  0
  -10.0360  -28.7834   26.3153 F   0  0  0  0  0  0  0  0  0  0  0  0
   -4.8946  -24.2088   27.1545 H   0  0  0  0  0  0  0  0  0  0  0  0
   -6.0727  -24.5595   25.8827 H   0  0  0  0  0  0  0  0  0  0  0  0
   -4.8272  -25.7626   26.3728 H   0  0  0  0  0  0  0  0  0  0  0  0
   -8.0064  -25.9896   28.6685 H   0  0  0  0  0  0  0  0  0  0  0  0
   -8.5333  -24.0865   29.0099 H   0  0  0  0  0  0  0  0  0  0  0  0
   -7.0434  -23.0141   26.6367 H   0  0  0  0  0  0  0  0  0  0  0  0
   -6.4796  -23.0459   28.3112 H   0  0  0  0  0  0  0  0  0  0  0  0
   -7.8015  -22.0185   27.8262 H   0  0  0  0  0  0  0  0  0  0  0  0
   -9.3045  -24.1791   26.2635 H   0  0  0  0  0  0  0  0  0  0  0  0
  -12.3376  -22.6287   27.9442 H   0  0  0  0  0  0  0  0  0  0  0  0
  -12.4222  -20.9959   29.7256 H   0  0  0  0  0  0  0  0  0  0  0  0
  -11.7508  -21.5971   32.0957 H   0  0  0  0  0  0  0  0  0  0  0  0
  -10.2446  -25.2900   30.4892 H   0  0  0  0  0  0  0  0  0  0  0  0
  -10.2678  -27.1415   27.6607 H   0  0  0  0  0  0  0  0  0  0  0  0
  -10.4799  -26.5482   25.9659 H   0  0  0  0  0  0  0  0  0  0  0  0
   -4.9385  -28.4405   26.0083 H   0  0  0  0  0  0  0  0  0  0  0  0
   -6.1965  -30.3399   24.8224 H   0  0  0  0  0  0  0  0  0  0  0  0
   -8.6030  -30.5711   25.2088 H   0  0  0  0  0  0  0  0  0  0  0  0
  1  2  1  0
  2  3  1  0
  3  4  1  0
  4  5  1  0
  4  6  1  0
  6  7  1  0
  7  8  2  3
  8  9  1  0
  9 10  2  0
 10 11  1  0
 11 12  2  0
 12 13  1  0
 13 14  1  0
 14 15  3  0
 13 16  2  0
  7 17  1  0
 17 18  1  0
 18 19  1  0
 19 20  2  0
 20 21  1  0
 21 22  2  0
 22 23  1  0
 23 24  2  0
 24 25  1  0
 18  3  1  0
 24 19  1  0
 16  9  1  0
  1 26  1  0
  1 27  1  0
  1 28  1  0
  3 29  1  0
  4 30  1  0
  5 31  1  0
  5 32  1  0
  5 33  1  0
  6 34  1  0
 10 35  1  0
 11 36  1  0
 12 37  1  0
 16 38  1  0
 17 39  1  0
 17 40  1  0
 21 41  1  0
 22 42  1  0
 23 43  1  0
M  END
>  <Energy>  (1007) 
176.42508554413033

>  <compound_id>  (1007) 
2304

>  <target_id>  (1007) 
1

>  <reference_id>  (1007) 
45

>  <inspiration_ids>  (1007) 
[45, 39]

>  <energy_score>  (1007) 
42.402592479481825

>  <distance_score>  (1007) 
1.4229867014225923

>  <path>  (1007) 
/opt/xchem-fragalysis-2/maxwin/BulkDock/SCRATCH/505732/C2304-P45/C2304-P45.minimised.mol

>  <scratch_subdir>  (1007) 
/opt/xchem-fragalysis-2/maxwin/BulkDock/SCRATCH/505732/C2304-P45

>  <fragmenstein_runtime>  (1007) 
8.650269031524658

>  <fragmenstein_outcome>  (1007) 
too moved

>  <fragmenstein_mode>  (1007) 
expansion

>  <fragmenstein_error>  (1007) 


$$$$
C2304-P39
     RDKit          3D

 43 45  0  0  0  0  0  0  0  0999 V2000
   -8.5989  -23.0563   27.5681 C   0  0  0  0  0  0  0  0  0  0  0  0
   -9.1743  -23.9971   28.4396 O   0  0  0  0  0  0  0  0  0  0  0  0
  -10.5097  -24.2339   28.1183 C   0  0  0  0  0  0  0  0  0  0  0  0
  -11.3848  -23.0485   28.4943 C   0  0  0  0  0  0  0  0  0  0  0  0
  -11.3859  -21.7769   27.7678 C   0  0  0  0  0  0  0  0  0  0  0  0
  -12.7358  -23.5394   28.4827 N   0  0  0  0  0  0  0  0  0  0  0  0
  -12.8626  -24.0751   29.7157 C   0  0  0  0  0  0  0  0  0  0  0  0
  -13.5961  -23.2651   30.4193 N   0  0  0  0  0  0  0  0  0  0  0  0
  -13.4779  -23.1722   31.7861 C   0  0  0  0  0  0  0  0  0  0  0  0
  -13.8918  -22.0075   32.4104 C   0  0  0  0  0  0  0  0  0  0  0  0
  -13.4475  -21.7285   33.6874 C   0  0  0  0  0  0  0  0  0  0  0  0
  -12.5979  -22.6396   34.3033 C   0  0  0  0  0  0  0  0  0  0  0  0
  -12.3066  -23.8595   33.7216 C   0  0  0  0  0  0  0  0  0  0  0  0
  -11.4017  -24.8449   34.2011 C   0  0  0  0  0  0  0  0  0  0  0  0
  -10.6122  -25.6523   34.4699 N   0  0  0  0  0  0  0  0  0  0  0  0
  -12.8436  -24.1390   32.5125 C   0  0  0  0  0  0  0  0  0  0  0  0
  -11.8313  -25.1978   30.0291 C   0  0  0  0  0  0  0  0  0  0  0  0
  -10.9532  -25.4484   28.8744 N   0  0  0  0  0  0  0  0  0  0  0  0
  -11.4896  -26.2549   27.8730 C   0  0  0  0  0  0  0  0  0  0  0  0
  -10.5142  -26.7702   27.1253 N   0  0  0  0  0  0  0  0  0  0  0  0
  -10.7728  -26.9602   25.8478 C   0  0  0  0  0  0  0  0  0  0  0  0
  -11.9143  -26.5100   25.2493 C   0  0  0  0  0  0  0  0  0  0  0  0
  -12.9831  -26.1269   26.0169 C   0  0  0  0  0  0  0  0  0  0  0  0
  -12.7937  -26.1227   27.3704 C   0  0  0  0  0  0  0  0  0  0  0  0
  -13.8601  -25.8239   28.1140 F   0  0  0  0  0  0  0  0  0  0  0  0
   -8.9912  -22.0980   27.7424 H   0  0  0  0  0  0  0  0  0  0  0  0
   -7.5303  -22.8553   27.6830 H   0  0  0  0  0  0  0  0  0  0  0  0
   -8.7044  -23.4474   26.5627 H   0  0  0  0  0  0  0  0  0  0  0  0
  -10.5864  -24.3495   27.0268 H   0  0  0  0  0  0  0  0  0  0  0  0
  -11.1077  -22.7257   29.5082 H   0  0  0  0  0  0  0  0  0  0  0  0
  -11.6302  -21.9073   26.7194 H   0  0  0  0  0  0  0  0  0  0  0  0
  -10.4661  -21.2454   27.8888 H   0  0  0  0  0  0  0  0  0  0  0  0
  -12.0944  -21.1373   28.2856 H   0  0  0  0  0  0  0  0  0  0  0  0
  -13.3811  -22.7916   28.4273 H   0  0  0  0  0  0  0  0  0  0  0  0
  -14.5408  -21.3231   31.8804 H   0  0  0  0  0  0  0  0  0  0  0  0
  -13.7171  -20.8044   34.1874 H   0  0  0  0  0  0  0  0  0  0  0  0
  -12.1721  -22.4047   35.2627 H   0  0  0  0  0  0  0  0  0  0  0  0
  -12.7035  -25.1264   32.1210 H   0  0  0  0  0  0  0  0  0  0  0  0
  -11.1519  -24.8538   30.8146 H   0  0  0  0  0  0  0  0  0  0  0  0
  -12.3121  -26.1229   30.3516 H   0  0  0  0  0  0  0  0  0  0  0  0
  -10.0411  -27.5377   25.3192 H   0  0  0  0  0  0  0  0  0  0  0  0
  -12.0465  -26.7240   24.2232 H   0  0  0  0  0  0  0  0  0  0  0  0
  -13.9544  -25.9170   25.5893 H   0  0  0  0  0  0  0  0  0  0  0  0
  1  2  1  0
  2  3  1  0
  3  4  1  0
  4  5  1  0
  4  6  1  0
  6  7  1  0
  7  8  2  3
  8  9  1  0
  9 10  2  0
 10 11  1  0
 11 12  2  0
 12 13  1  0
 13 14  1  0
 14 15  3  0
 13 16  2  0
  7 17  1  0
 17 18  1  0
 18 19  1  0
 19 20  2  0
 20 21  1  0
 21 22  2  0
 22 23  1  0
 23 24  2  0
 24 25  1  0
 18  3  1  0
 24 19  1  0
 16  9  1  0
  1 26  1  0
  1 27  1  0
  1 28  1  0
  3 29  1  0
  4 30  1  0
  5 31  1  0
  5 32  1  0
  5 33  1  0
  6 34  1  0
 10 35  1  0
 11 36  1  0
 12 37  1  0
 16 38  1  0
 17 39  1  0
 17 40  1  0
 21 41  1  0
 22 42  1  0
 23 43  1  0
M  END
>  <Energy>  (1008) 
211.07104985637028

>  <compound_id>  (1008) 
2304

>  <target_id>  (1008) 
1

>  <reference_id>  (1008) 
39

>  <inspiration_ids>  (1008) 
[45, 39]

>  <energy_score>  (1008) 
74.18195596438403

>  <distance_score>  (1008) 
4.225462051543563

>  <path>  (1008) 
/opt/xchem-fragalysis-2/maxwin/BulkDock/SCRATCH/505732/C2304-P39/C2304-P39.minimised.mol

>  <scratch_subdir>  (1008) 
/opt/xchem-fragalysis-2/maxwin/BulkDock/SCRATCH/505732/C2304-P39

>  <fragmenstein_runtime>  (1008) 
9.684200286865234

>  <fragmenstein_outcome>  (1008) 
too moved

>  <fragmenstein_mode>  (1008) 
expansion

>  <fragmenstein_error>  (1008) 


$$$$
C2248-P45
     RDKit          3D

 47 50  0  0  0  0  0  0  0  0999 V2000
  -10.0444  -29.2227   27.1420 N   0  0  0  0  0  0  0  0  0  0  0  0
   -8.6837  -29.0949   26.6674 C   0  0  0  0  0  0  0  0  0  0  0  0
   -7.8638  -27.8354   26.9058 C   0  0  0  0  0  0  0  0  0  0  0  0
   -6.4976  -28.1973   26.4181 C   0  0  0  0  0  0  0  0  0  0  0  0
   -5.4586  -27.3739   26.5756 C   0  0  0  0  0  0  0  0  0  0  0  0
   -5.7188  -26.1015   27.0109 N   0  0  0  0  0  0  0  0  0  0  0  0
   -4.8687  -25.0812   27.3098 C   0  0  0  0  0  0  0  0  0  0  0  0
   -5.6660  -24.0126   27.6430 C   0  0  0  0  0  0  0  0  0  0  0  0
   -6.9822  -24.3601   27.6221 N   0  0  0  0  0  0  0  0  0  0  0  0
   -6.9783  -25.6462   27.3037 C   0  0  0  0  0  0  0  0  0  0  0  0
   -8.0452  -26.6070   27.4963 C   0  0  0  0  0  0  0  0  0  0  0  0
   -8.9725  -26.0014   28.3492 N   0  0  0  0  0  0  0  0  0  0  0  0
  -10.2901  -26.2877   28.8238 C   0  0  0  0  0  0  0  0  0  0  0  0
  -11.1734  -26.3718   27.6066 C   0  0  0  0  0  0  0  0  0  0  0  0
  -11.3843  -25.1403   26.6792 C   0  0  0  0  0  0  0  0  0  0  0  0
  -12.0270  -25.6183   25.4079 N   0  0  0  0  0  0  0  0  0  0  0  0
  -13.1856  -24.9558   25.0098 C   0  0  0  0  0  0  0  0  0  0  0  0
  -14.2994  -25.7314   24.8132 N   0  0  0  0  0  0  0  0  0  0  0  0
  -15.4691  -25.1365   24.5144 C   0  0  0  0  0  0  0  0  0  0  0  0
  -15.5922  -23.7709   24.3712 C   0  0  0  0  0  0  0  0  0  0  0  0
  -14.4326  -23.0112   24.3542 C   0  0  0  0  0  0  0  0  0  0  0  0
  -13.2250  -23.5934   24.7337 C   0  0  0  0  0  0  0  0  0  0  0  0
  -12.1091  -22.8630   24.7350 F   0  0  0  0  0  0  0  0  0  0  0  0
  -12.2368  -27.0824   25.3369 C   0  0  0  0  0  0  0  0  0  0  0  0
  -12.8814  -27.6454   26.6334 C   0  0  0  0  0  0  0  0  0  0  0  0
  -13.6497  -28.6031   26.6604 O   0  0  0  0  0  0  0  0  0  0  0  0
  -12.4309  -27.0507   27.8025 N   0  0  0  0  0  0  0  0  0  0  0  0
  -10.1327  -30.1424   27.5754 H   0  0  0  0  0  0  0  0  0  0  0  0
  -10.6194  -29.2937   26.3050 H   0  0  0  0  0  0  0  0  0  0  0  0
   -8.7172  -29.2586   25.5801 H   0  0  0  0  0  0  0  0  0  0  0  0
   -8.1385  -29.9605   27.0585 H   0  0  0  0  0  0  0  0  0  0  0  0
   -6.3373  -29.1755   25.9732 H   0  0  0  0  0  0  0  0  0  0  0  0
   -4.4426  -27.6213   26.3027 H   0  0  0  0  0  0  0  0  0  0  0  0
   -3.8030  -25.2353   27.2729 H   0  0  0  0  0  0  0  0  0  0  0  0
   -5.3623  -23.0189   27.9324 H   0  0  0  0  0  0  0  0  0  0  0  0
   -8.7011  -25.0208   28.5051 H   0  0  0  0  0  0  0  0  0  0  0  0
  -10.2903  -27.2223   29.3934 H   0  0  0  0  0  0  0  0  0  0  0  0
  -10.6319  -25.4940   29.4949 H   0  0  0  0  0  0  0  0  0  0  0  0
  -10.5929  -27.0293   26.9694 H   0  0  0  0  0  0  0  0  0  0  0  0
  -12.0038  -24.3957   27.1935 H   0  0  0  0  0  0  0  0  0  0  0  0
  -10.4282  -24.6733   26.4230 H   0  0  0  0  0  0  0  0  0  0  0  0
  -16.3306  -25.7946   24.4616 H   0  0  0  0  0  0  0  0  0  0  0  0
  -16.5680  -23.3086   24.2721 H   0  0  0  0  0  0  0  0  0  0  0  0
  -14.4646  -21.9494   24.1480 H   0  0  0  0  0  0  0  0  0  0  0  0
  -12.8278  -27.3928   24.4693 H   0  0  0  0  0  0  0  0  0  0  0  0
  -11.2663  -27.5571   25.1721 H   0  0  0  0  0  0  0  0  0  0  0  0
  -12.6213  -27.5908   28.6376 H   0  0  0  0  0  0  0  0  0  0  0  0
  1  2  1  0
  2  3  1  0
  3  4  1  0
  4  5  2  0
  5  6  1  0
  6  7  1  0
  7  8  2  0
  8  9  1  0
  9 10  2  0
 10 11  1  0
 11 12  1  0
 12 13  1  0
 13 14  1  0
 14 15  1  0
 15 16  1  0
 16 17  1  0
 17 18  2  0
 18 19  1  0
 19 20  2  0
 20 21  1  0
 21 22  2  0
 22 23  1  0
 16 24  1  0
 24 25  1  0
 25 26  2  0
 25 27  1  0
 11  3  2  0
 27 14  1  0
 10  6  1  0
 22 17  1  0
  1 28  1  0
  1 29  1  0
  2 30  1  0
  2 31  1  0
  4 32  1  0
  5 33  1  0
  7 34  1  0
  8 35  1  0
 12 36  1  0
 13 37  1  0
 13 38  1  0
 14 39  1  0
 15 40  1  0
 15 41  1  0
 19 42  1  0
 20 43  1  0
 21 44  1  0
 24 45  1  0
 24 46  1  0
 27 47  1  0
M  END
>  <Energy>  (1009) 
193.94695172536657

>  <compound_id>  (1009) 
2248

>  <target_id>  (1009) 
1

>  <reference_id>  (1009) 
45

>  <inspiration_ids>  (1009) 
[45, 42]

>  <energy_score>  (1009) 
4.917283427683628

>  <distance_score>  (1009) 
1.8257257213428197

>  <path>  (1009) 
/opt/xchem-fragalysis-2/maxwin/BulkDock/SCRATCH/505732/C2248-P45/C2248-P45.minimised.mol

>  <scratch_subdir>  (1009) 
/opt/xchem-fragalysis-2/maxwin/BulkDock/SCRATCH/505732/C2248-P45

>  <fragmenstein_runtime>  (1009) 
4.652162313461304

>  <fragmenstein_outcome>  (1009) 
too moved

>  <fragmenstein_mode>  (1009) 
expansion

>  <fragmenstein_error>  (1009) 


$$$$
C2248-P42
     RDKit          3D

 47 50  0  0  0  0  0  0  0  0999 V2000
  -12.9641  -29.3704   29.7749 N   0  0  0  0  0  0  0  0  0  0  0  0
  -13.3910  -28.6256   28.5933 C   0  0  0  0  0  0  0  0  0  0  0  0
  -12.3262  -27.6606   28.1683 C   0  0  0  0  0  0  0  0  0  0  0  0
  -11.5635  -27.9796   26.9624 C   0  0  0  0  0  0  0  0  0  0  0  0
  -10.8634  -27.0116   26.3392 C   0  0  0  0  0  0  0  0  0  0  0  0
  -10.6732  -25.8013   27.0080 N   0  0  0  0  0  0  0  0  0  0  0  0
  -10.3690  -24.5279   26.5957 C   0  0  0  0  0  0  0  0  0  0  0  0
  -10.4295  -23.7448   27.7302 C   0  0  0  0  0  0  0  0  0  0  0  0
  -10.7747  -24.4757   28.8133 N   0  0  0  0  0  0  0  0  0  0  0  0
  -11.0958  -25.6357   28.2973 C   0  0  0  0  0  0  0  0  0  0  0  0
  -12.2817  -26.3664   28.5481 C   0  0  0  0  0  0  0  0  0  0  0  0
  -13.4089  -25.5011   28.5619 N   0  0  0  0  0  0  0  0  0  0  0  0
  -13.8186  -24.9920   27.2131 C   0  0  0  0  0  0  0  0  0  0  0  0
  -14.9424  -25.7975   26.5977 C   0  0  0  0  0  0  0  0  0  0  0  0
  -15.2643  -25.2252   25.1877 C   0  0  0  0  0  0  0  0  0  0  0  0
  -16.7068  -25.1683   24.9137 N   0  0  0  0  0  0  0  0  0  0  0  0
  -17.3449  -23.9461   25.1933 C   0  0  0  0  0  0  0  0  0  0  0  0
  -18.4969  -23.9739   25.9001 N   0  0  0  0  0  0  0  0  0  0  0  0
  -19.1832  -22.8273   26.0882 C   0  0  0  0  0  0  0  0  0  0  0  0
  -18.7906  -21.6051   25.5808 C   0  0  0  0  0  0  0  0  0  0  0  0
  -17.6107  -21.5532   24.8590 C   0  0  0  0  0  0  0  0  0  0  0  0
  -16.8881  -22.7239   24.6709 C   0  0  0  0  0  0  0  0  0  0  0  0
  -15.7844  -22.6539   23.9107 F   0  0  0  0  0  0  0  0  0  0  0  0
  -17.4280  -26.3506   25.4623 C   0  0  0  0  0  0  0  0  0  0  0  0
  -17.2345  -26.4936   26.9830 C   0  0  0  0  0  0  0  0  0  0  0  0
  -17.9954  -27.1186   27.7171 O   0  0  0  0  0  0  0  0  0  0  0  0
  -16.0817  -25.9337   27.4834 N   0  0  0  0  0  0  0  0  0  0  0  0
  -13.7638  -29.8782   30.1521 H   0  0  0  0  0  0  0  0  0  0  0  0
  -12.6709  -28.7052   30.4891 H   0  0  0  0  0  0  0  0  0  0  0  0
  -14.3315  -28.1100   28.8120 H   0  0  0  0  0  0  0  0  0  0  0  0
  -13.6092  -29.3669   27.8263 H   0  0  0  0  0  0  0  0  0  0  0  0
  -11.6877  -28.9667   26.5269 H   0  0  0  0  0  0  0  0  0  0  0  0
  -10.4573  -27.1520   25.3501 H   0  0  0  0  0  0  0  0  0  0  0  0
  -10.2094  -24.2825   25.5557 H   0  0  0  0  0  0  0  0  0  0  0  0
  -10.3232  -22.6765   27.8395 H   0  0  0  0  0  0  0  0  0  0  0  0
  -12.9824  -24.6501   28.9851 H   0  0  0  0  0  0  0  0  0  0  0  0
  -14.0884  -23.9398   27.2852 H   0  0  0  0  0  0  0  0  0  0  0  0
  -12.9919  -24.9907   26.5014 H   0  0  0  0  0  0  0  0  0  0  0  0
  -14.5906  -26.8167   26.4732 H   0  0  0  0  0  0  0  0  0  0  0  0
  -14.7689  -24.2610   25.0375 H   0  0  0  0  0  0  0  0  0  0  0  0
  -14.8084  -25.8859   24.4392 H   0  0  0  0  0  0  0  0  0  0  0  0
  -20.0976  -22.9279   26.6677 H   0  0  0  0  0  0  0  0  0  0  0  0
  -19.3922  -20.7173   25.7444 H   0  0  0  0  0  0  0  0  0  0  0  0
  -17.2527  -20.6169   24.4434 H   0  0  0  0  0  0  0  0  0  0  0  0
  -17.0230  -27.2570   24.9956 H   0  0  0  0  0  0  0  0  0  0  0  0
  -18.4973  -26.3233   25.2228 H   0  0  0  0  0  0  0  0  0  0  0  0
  -15.9179  -26.1249   28.4629 H   0  0  0  0  0  0  0  0  0  0  0  0
  1  2  1  0
  2  3  1  0
  3  4  1  0
  4  5  2  0
  5  6  1  0
  6  7  1  0
  7  8  2  0
  8  9  1  0
  9 10  2  0
 10 11  1  0
 11 12  1  0
 12 13  1  0
 13 14  1  0
 14 15  1  0
 15 16  1  0
 16 17  1  0
 17 18  2  0
 18 19  1  0
 19 20  2  0
 20 21  1  0
 21 22  2  0
 22 23  1  0
 16 24  1  0
 24 25  1  0
 25 26  2  0
 25 27  1  0
 11  3  2  0
 27 14  1  0
 10  6  1  0
 22 17  1  0
  1 28  1  0
  1 29  1  0
  2 30  1  0
  2 31  1  0
  4 32  1  0
  5 33  1  0
  7 34  1  0
  8 35  1  0
 12 36  1  0
 13 37  1  0
 13 38  1  0
 14 39  1  0
 15 40  1  0
 15 41  1  0
 19 42  1  0
 20 43  1  0
 21 44  1  0
 24 45  1  0
 24 46  1  0
 27 47  1  0
M  END
>  <Energy>  (1010) 
199.63526624913146

>  <compound_id>  (1010) 
2248

>  <target_id>  (1010) 
1

>  <reference_id>  (1010) 
42

>  <inspiration_ids>  (1010) 
[45, 42]

>  <energy_score>  (1010) 
7.39970177018688

>  <distance_score>  (1010) 
4.975244650603805

>  <path>  (1010) 
/opt/xchem-fragalysis-2/maxwin/BulkDock/SCRATCH/505732/C2248-P42/C2248-P42.minimised.mol

>  <scratch_subdir>  (1010) 
/opt/xchem-fragalysis-2/maxwin/BulkDock/SCRATCH/505732/C2248-P42

>  <fragmenstein_runtime>  (1010) 
11.493350267410278

>  <fragmenstein_outcome>  (1010) 
too moved

>  <fragmenstein_mode>  (1010) 
expansion

>  <fragmenstein_error>  (1010) 


$$$$
C2306-P45
     RDKit          3D

 33 34  0  0  0  0  0  0  0  0999 V2000
  -11.5107  -23.3450   29.7473 C   0  0  0  0  0  0  0  0  0  0  0  0
  -11.4111  -24.1019   28.4302 C   0  0  0  0  0  0  0  0  0  0  0  0
  -10.0579  -24.0583   27.8803 N   0  0  0  0  0  0  0  0  0  0  0  0
   -9.6308  -25.0401   27.0057 C   0  0  0  0  0  0  0  0  0  0  0  0
   -8.4051  -25.3709   26.7375 N   0  0  0  0  0  0  0  0  0  0  0  0
   -7.3619  -24.7443   27.3589 C   0  0  0  0  0  0  0  0  0  0  0  0
   -6.2360  -25.5049   27.0017 N   0  0  0  0  0  0  0  0  0  0  0  0
   -7.4609  -23.7756   28.0481 O   0  0  0  0  0  0  0  0  0  0  0  0
  -10.7430  -25.8429   26.2745 C   0  0  0  0  0  0  0  0  0  0  0  0
  -11.9080  -26.1105   27.1266 N   0  0  0  0  0  0  0  0  0  0  0  0
  -13.0007  -26.8023   26.6708 C   0  0  0  0  0  0  0  0  0  0  0  0
  -13.9363  -27.1235   27.5985 N   0  0  0  0  0  0  0  0  0  0  0  0
  -15.1142  -27.6739   27.2149 C   0  0  0  0  0  0  0  0  0  0  0  0
  -15.4730  -27.8326   25.8960 C   0  0  0  0  0  0  0  0  0  0  0  0
  -14.5453  -27.4665   24.9339 C   0  0  0  0  0  0  0  0  0  0  0  0
  -13.2889  -27.0073   25.3218 C   0  0  0  0  0  0  0  0  0  0  0  0
  -12.4100  -26.7010   24.3615 F   0  0  0  0  0  0  0  0  0  0  0  0
  -11.8890  -25.5868   28.5067 C   0  0  0  0  0  0  0  0  0  0  0  0
  -10.9893  -26.4115   29.3484 C   0  0  0  0  0  0  0  0  0  0  0  0
  -10.2811  -27.0291   30.0305 N   0  0  0  0  0  0  0  0  0  0  0  0
  -11.1722  -22.3105   29.6228 H   0  0  0  0  0  0  0  0  0  0  0  0
  -12.5441  -23.3031   30.0928 H   0  0  0  0  0  0  0  0  0  0  0  0
  -10.9124  -23.8094   30.5345 H   0  0  0  0  0  0  0  0  0  0  0  0
  -12.0568  -23.5750   27.7148 H   0  0  0  0  0  0  0  0  0  0  0  0
   -9.3185  -23.5688   28.3826 H   0  0  0  0  0  0  0  0  0  0  0  0
   -6.5509  -26.3461   26.4814 H   0  0  0  0  0  0  0  0  0  0  0  0
   -6.5172  -26.2067   26.2919 H   0  0  0  0  0  0  0  0  0  0  0  0
  -10.3299  -26.8033   25.9572 H   0  0  0  0  0  0  0  0  0  0  0  0
  -11.0235  -25.2390   25.4049 H   0  0  0  0  0  0  0  0  0  0  0  0
  -15.7875  -27.9435   28.0247 H   0  0  0  0  0  0  0  0  0  0  0  0
  -16.4461  -28.2253   25.6231 H   0  0  0  0  0  0  0  0  0  0  0  0
  -14.7802  -27.5454   23.8772 H   0  0  0  0  0  0  0  0  0  0  0  0
  -12.8829  -25.5817   28.9641 H   0  0  0  0  0  0  0  0  0  0  0  0
  1  2  1  0
  2  3  1  0
  3  4  1  0
  4  5  2  3
  5  6  1  0
  6  7  1  0
  6  8  2  0
  4  9  1  0
  9 10  1  0
 10 11  1  0
 11 12  2  0
 12 13  1  0
 13 14  2  0
 14 15  1  0
 15 16  2  0
 16 17  1  0
 10 18  1  0
 18 19  1  0
 19 20  3  0
 18  2  1  0
 16 11  1  0
  1 21  1  0
  1 22  1  0
  1 23  1  0
  2 24  1  0
  3 25  1  0
  7 26  1  0
  7 27  1  0
  9 28  1  0
  9 29  1  0
 13 30  1  0
 14 31  1  0
 15 32  1  0
 18 33  1  0
M  END
>  <Energy>  (1011) 
194.43822875468837

>  <compound_id>  (1011) 
2306

>  <target_id>  (1011) 
1

>  <reference_id>  (1011) 
45

>  <inspiration_ids>  (1011) 
[45, 47]

>  <energy_score>  (1011) 
104.26208426245086

>  <distance_score>  (1011) 
3.1139737124499147

>  <path>  (1011) 
/opt/xchem-fragalysis-2/maxwin/BulkDock/SCRATCH/505732/C2306-P45/C2306-P45.minimised.mol

>  <scratch_subdir>  (1011) 
/opt/xchem-fragalysis-2/maxwin/BulkDock/SCRATCH/505732/C2306-P45

>  <fragmenstein_runtime>  (1011) 
20.3708176612854

>  <fragmenstein_outcome>  (1011) 
too moved

>  <fragmenstein_mode>  (1011) 
expansion

>  <fragmenstein_error>  (1011) 


$$$$
C2306-P47
     RDKit          3D

 33 34  0  0  0  0  0  0  0  0999 V2000
  -11.5368  -24.4748   32.3219 C   0  0  0  0  0  0  0  0  0  0  0  0
  -11.1088  -25.7084   31.5157 C   0  0  0  0  0  0  0  0  0  0  0  0
  -12.2306  -26.4739   31.0039 N   0  0  0  0  0  0  0  0  0  0  0  0
  -12.4312  -26.3163   29.6489 C   0  0  0  0  0  0  0  0  0  0  0  0
  -12.4102  -27.2537   28.7569 N   0  0  0  0  0  0  0  0  0  0  0  0
  -12.4026  -28.6044   28.9882 C   0  0  0  0  0  0  0  0  0  0  0  0
  -11.6414  -28.9669   30.1254 N   0  0  0  0  0  0  0  0  0  0  0  0
  -13.0685  -29.2698   28.2543 O   0  0  0  0  0  0  0  0  0  0  0  0
  -12.3851  -24.8400   29.2465 C   0  0  0  0  0  0  0  0  0  0  0  0
  -10.9071  -24.4615   29.3165 N   0  0  0  0  0  0  0  0  0  0  0  0
  -10.5766  -24.6951   27.9180 C   0  0  0  0  0  0  0  0  0  0  0  0
  -10.2206  -25.9461   27.5742 N   0  0  0  0  0  0  0  0  0  0  0  0
  -10.8097  -26.4513   26.4673 C   0  0  0  0  0  0  0  0  0  0  0  0
  -11.5941  -25.7197   25.6021 C   0  0  0  0  0  0  0  0  0  0  0  0
  -11.7254  -24.3573   25.8194 C   0  0  0  0  0  0  0  0  0  0  0  0
  -11.1978  -23.8304   26.9882 C   0  0  0  0  0  0  0  0  0  0  0  0
  -11.5597  -22.5907   27.3586 F   0  0  0  0  0  0  0  0  0  0  0  0
  -10.2108  -25.4386   30.2644 C   0  0  0  0  0  0  0  0  0  0  0  0
   -8.9749  -25.2435   30.9359 C   0  0  0  0  0  0  0  0  0  0  0  0
   -8.1506  -25.3876   31.7274 N   0  0  0  0  0  0  0  0  0  0  0  0
  -12.1675  -23.7764   31.7709 H   0  0  0  0  0  0  0  0  0  0  0  0
  -12.1054  -24.7820   33.2066 H   0  0  0  0  0  0  0  0  0  0  0  0
  -10.6618  -23.9162   32.6624 H   0  0  0  0  0  0  0  0  0  0  0  0
  -10.6008  -26.3771   32.2219 H   0  0  0  0  0  0  0  0  0  0  0  0
  -13.0641  -26.1248   31.4969 H   0  0  0  0  0  0  0  0  0  0  0  0
  -11.1020  -28.1458   30.4421 H   0  0  0  0  0  0  0  0  0  0  0  0
  -11.2903  -28.1080   30.5808 H   0  0  0  0  0  0  0  0  0  0  0  0
  -12.9200  -24.7218   28.2994 H   0  0  0  0  0  0  0  0  0  0  0  0
  -12.9474  -24.2330   29.9604 H   0  0  0  0  0  0  0  0  0  0  0  0
  -10.6653  -27.5086   26.2861 H   0  0  0  0  0  0  0  0  0  0  0  0
  -12.0832  -26.2473   24.7955 H   0  0  0  0  0  0  0  0  0  0  0  0
  -12.3264  -23.7285   25.1700 H   0  0  0  0  0  0  0  0  0  0  0  0
  -10.0499  -26.3982   29.7562 H   0  0  0  0  0  0  0  0  0  0  0  0
  1  2  1  0
  2  3  1  0
  3  4  1  0
  4  5  2  3
  5  6  1  0
  6  7  1  0
  6  8  2  0
  4  9  1  0
  9 10  1  0
 10 11  1  0
 11 12  2  0
 12 13  1  0
 13 14  2  0
 14 15  1  0
 15 16  2  0
 16 17  1  0
 10 18  1  0
 18 19  1  0
 19 20  3  0
 18  2  1  0
 16 11  1  0
  1 21  1  0
  1 22  1  0
  1 23  1  0
  2 24  1  0
  3 25  1  0
  7 26  1  0
  7 27  1  0
  9 28  1  0
  9 29  1  0
 13 30  1  0
 14 31  1  0
 15 32  1  0
 18 33  1  0
M  END
>  <Energy>  (1012) 
279.95249094128945

>  <compound_id>  (1012) 
2306

>  <target_id>  (1012) 
1

>  <reference_id>  (1012) 
47

>  <inspiration_ids>  (1012) 
[45, 47]

>  <energy_score>  (1012) 
189.77634644905294

>  <distance_score>  (1012) 
3.0748539811297326

>  <path>  (1012) 
/opt/xchem-fragalysis-2/maxwin/BulkDock/SCRATCH/505732/C2306-P47/C2306-P47.minimised.mol

>  <scratch_subdir>  (1012) 
/opt/xchem-fragalysis-2/maxwin/BulkDock/SCRATCH/505732/C2306-P47

>  <fragmenstein_runtime>  (1012) 
11.860192060470581

>  <fragmenstein_outcome>  (1012) 
too moved

>  <fragmenstein_mode>  (1012) 
expansion

>  <fragmenstein_error>  (1012) 


$$$$
C2307-P45
     RDKit          3D

 20 20  0  0  0  0  0  0  0  0999 V2000
   -8.5550  -24.5257   27.6914 C   0  0  0  0  0  0  0  0  0  0  0  0
   -9.9738  -24.0478   28.0927 C   0  0  0  0  0  0  0  0  0  0  0  0
  -11.0491  -24.2255   26.9538 C   0  0  0  0  0  0  0  0  0  0  0  0
  -12.3159  -24.8606   27.4062 N   0  0  0  0  0  0  0  0  0  0  0  0
  -12.0536  -26.1830   28.0086 C   0  0  0  0  0  0  0  0  0  0  0  0
  -10.7492  -26.0921   28.8122 C   0  0  0  0  0  0  0  0  0  0  0  0
   -9.8509  -27.0253   28.8359 N   0  0  0  0  0  0  0  0  0  0  0  0
  -10.1618  -28.0219   27.9164 O   0  0  0  0  0  0  0  0  0  0  0  0
  -10.4346  -24.8260   29.2834 N   0  0  0  0  0  0  0  0  0  0  0  0
   -7.9207  -24.6292   28.5772 H   0  0  0  0  0  0  0  0  0  0  0  0
   -8.0618  -23.8142   27.0288 H   0  0  0  0  0  0  0  0  0  0  0  0
   -8.5738  -25.4876   27.1698 H   0  0  0  0  0  0  0  0  0  0  0  0
   -9.9489  -22.9931   28.3794 H   0  0  0  0  0  0  0  0  0  0  0  0
  -11.3195  -23.2413   26.5628 H   0  0  0  0  0  0  0  0  0  0  0  0
  -10.6386  -24.7962   26.1121 H   0  0  0  0  0  0  0  0  0  0  0  0
  -12.7229  -24.2561   28.1235 H   0  0  0  0  0  0  0  0  0  0  0  0
  -12.8695  -26.4581   28.6838 H   0  0  0  0  0  0  0  0  0  0  0  0
  -12.0061  -26.9231   27.2073 H   0  0  0  0  0  0  0  0  0  0  0  0
   -9.3127  -28.4927   27.8073 H   0  0  0  0  0  0  0  0  0  0  0  0
  -11.2764  -24.3436   29.5868 H   0  0  0  0  0  0  0  0  0  0  0  0
  1  2  1  0
  2  3  1  0
  3  4  1  0
  4  5  1  0
  5  6  1  0
  6  7  2  3
  7  8  1  0
  6  9  1  0
  9  2  1  0
  1 10  1  0
  1 11  1  0
  1 12  1  0
  2 13  1  0
  3 14  1  0
  3 15  1  0
  4 16  1  0
  5 17  1  0
  5 18  1  0
  8 19  1  0
  9 20  1  0
M  END
>  <Energy>  (1013) 
105.82491272770591

>  <compound_id>  (1013) 
2307

>  <target_id>  (1013) 
1

>  <reference_id>  (1013) 
45

>  <inspiration_ids>  (1013) 
[45, 49]

>  <energy_score>  (1013) 
-1.6535773232667168

>  <distance_score>  (1013) 
1.997246885835499

>  <path>  (1013) 
/opt/xchem-fragalysis-2/maxwin/BulkDock/SCRATCH/505732/C2307-P45/C2307-P45.minimised.mol

>  <scratch_subdir>  (1013) 
/opt/xchem-fragalysis-2/maxwin/BulkDock/SCRATCH/505732/C2307-P45

>  <fragmenstein_runtime>  (1013) 
9.49083399772644

>  <fragmenstein_outcome>  (1013) 
too moved

>  <fragmenstein_mode>  (1013) 
expansion

>  <fragmenstein_error>  (1013) 


$$$$
C2307-P49
     RDKit          3D

 20 20  0  0  0  0  0  0  0  0999 V2000
   -9.0934  -23.8979   28.5493 C   0  0  0  0  0  0  0  0  0  0  0  0
  -10.5306  -23.3659   28.6660 C   0  0  0  0  0  0  0  0  0  0  0  0
  -11.1625  -23.1731   27.2559 C   0  0  0  0  0  0  0  0  0  0  0  0
  -12.2119  -24.1413   26.8873 N   0  0  0  0  0  0  0  0  0  0  0  0
  -11.8047  -25.4964   27.2843 C   0  0  0  0  0  0  0  0  0  0  0  0
  -11.5058  -25.5292   28.8002 C   0  0  0  0  0  0  0  0  0  0  0  0
  -11.3443  -26.6340   29.4581 N   0  0  0  0  0  0  0  0  0  0  0  0
  -11.3669  -27.7151   28.5818 O   0  0  0  0  0  0  0  0  0  0  0  0
  -11.3150  -24.3254   29.4441 N   0  0  0  0  0  0  0  0  0  0  0  0
   -8.6420  -23.9977   29.5411 H   0  0  0  0  0  0  0  0  0  0  0  0
   -8.5218  -23.1726   27.9723 H   0  0  0  0  0  0  0  0  0  0  0  0
   -9.0398  -24.8741   28.0618 H   0  0  0  0  0  0  0  0  0  0  0  0
  -10.5283  -22.4066   29.1920 H   0  0  0  0  0  0  0  0  0  0  0  0
  -11.5964  -22.1698   27.2039 H   0  0  0  0  0  0  0  0  0  0  0  0
  -10.3879  -23.2056   26.4832 H   0  0  0  0  0  0  0  0  0  0  0  0
  -13.0355  -23.9160   27.4449 H   0  0  0  0  0  0  0  0  0  0  0  0
  -12.6203  -26.1896   27.0574 H   0  0  0  0  0  0  0  0  0  0  0  0
  -10.9126  -25.8051   26.7304 H   0  0  0  0  0  0  0  0  0  0  0  0
  -11.4606  -28.4731   29.1884 H   0  0  0  0  0  0  0  0  0  0  0  0
  -10.9646  -24.4660   30.3889 H   0  0  0  0  0  0  0  0  0  0  0  0
  1  2  1  0
  2  3  1  0
  3  4  1  0
  4  5  1  0
  5  6  1  0
  6  7  2  3
  7  8  1  0
  6  9  1  0
  9  2  1  0
  1 10  1  0
  1 11  1  0
  1 12  1  0
  2 13  1  0
  3 14  1  0
  3 15  1  0
  4 16  1  0
  5 17  1  0
  5 18  1  0
  8 19  1  0
  9 20  1  0
M  END
>  <Energy>  (1014) 
85.151588999483479

>  <compound_id>  (1014) 
2307

>  <target_id>  (1014) 
1

>  <reference_id>  (1014) 
49

>  <inspiration_ids>  (1014) 
[45, 49]

>  <energy_score>  (1014) 
-22.326901051490125

>  <distance_score>  (1014) 
2.0530536404475743

>  <path>  (1014) 
/opt/xchem-fragalysis-2/maxwin/BulkDock/SCRATCH/505732/C2307-P49/C2307-P49.minimised.mol

>  <scratch_subdir>  (1014) 
/opt/xchem-fragalysis-2/maxwin/BulkDock/SCRATCH/505732/C2307-P49

>  <fragmenstein_runtime>  (1014) 
5.499667167663574

>  <fragmenstein_outcome>  (1014) 
too moved

>  <fragmenstein_mode>  (1014) 
expansion

>  <fragmenstein_error>  (1014) 


$$$$
C2312-P45
     RDKit          3D

 30 31  0  0  0  0  0  0  0  0999 V2000
   -9.8612  -25.1547   31.0616 C   0  0  0  0  0  0  0  0  0  0  0  0
  -10.2700  -24.9188   29.6463 C   0  0  0  0  0  0  0  0  0  0  0  0
  -11.4049  -24.2721   29.1909 C   0  0  0  0  0  0  0  0  0  0  0  0
  -11.6537  -24.2628   27.8134 C   0  0  0  0  0  0  0  0  0  0  0  0
  -10.7793  -24.8933   26.9403 C   0  0  0  0  0  0  0  0  0  0  0  0
  -11.1393  -25.0694   25.6582 F   0  0  0  0  0  0  0  0  0  0  0  0
   -9.5866  -25.3645   27.4685 C   0  0  0  0  0  0  0  0  0  0  0  0
   -8.5102  -25.8838   26.7250 N   0  0  0  0  0  0  0  0  0  0  0  0
   -7.3047  -25.0589   27.0567 C   0  0  0  0  0  0  0  0  0  0  0  0
   -5.9697  -25.7713   26.8730 C   0  0  0  0  0  0  0  0  0  0  0  0
   -4.9033  -25.1875   27.0582 O   0  0  0  0  0  0  0  0  0  0  0  0
   -5.9835  -27.0889   26.5041 N   0  0  0  0  0  0  0  0  0  0  0  0
   -7.0916  -27.9646   26.7948 C   0  0  0  0  0  0  0  0  0  0  0  0
   -7.3445  -29.1248   25.8621 C   0  0  0  0  0  0  0  0  0  0  0  0
   -8.4058  -27.2903   27.1653 C   0  0  0  0  0  0  0  0  0  0  0  0
   -9.3812  -25.4089   28.7953 N   0  0  0  0  0  0  0  0  0  0  0  0
  -10.0889  -26.1813   31.3616 H   0  0  0  0  0  0  0  0  0  0  0  0
  -10.3200  -24.4357   31.7468 H   0  0  0  0  0  0  0  0  0  0  0  0
   -8.7799  -25.0594   31.1751 H   0  0  0  0  0  0  0  0  0  0  0  0
  -12.1082  -23.7957   29.8650 H   0  0  0  0  0  0  0  0  0  0  0  0
  -12.5241  -23.7684   27.4064 H   0  0  0  0  0  0  0  0  0  0  0  0
   -7.2958  -24.1905   26.3893 H   0  0  0  0  0  0  0  0  0  0  0  0
   -7.2949  -24.6792   28.0856 H   0  0  0  0  0  0  0  0  0  0  0  0
   -5.0569  -27.4781   26.3604 H   0  0  0  0  0  0  0  0  0  0  0  0
   -6.7125  -28.4684   27.6699 H   0  0  0  0  0  0  0  0  0  0  0  0
   -6.4188  -29.5281   25.4527 H   0  0  0  0  0  0  0  0  0  0  0  0
   -7.8561  -29.9223   26.4122 H   0  0  0  0  0  0  0  0  0  0  0  0
   -8.0234  -28.8803   25.0498 H   0  0  0  0  0  0  0  0  0  0  0  0
   -8.4991  -27.4088   28.2513 H   0  0  0  0  0  0  0  0  0  0  0  0
   -9.2580  -27.8495   26.7528 H   0  0  0  0  0  0  0  0  0  0  0  0
  1  2  1  0
  2  3  2  0
  3  4  1  0
  4  5  2  0
  5  6  1  0
  5  7  1  0
  7  8  1  0
  8  9  1  0
  9 10  1  0
 10 11  2  0
 10 12  1  0
 12 13  1  0
 13 14  1  0
 13 15  1  0
  7 16  2  0
 16  2  1  0
 15  8  1  0
  1 17  1  0
  1 18  1  0
  1 19  1  0
  3 20  1  0
  4 21  1  0
  9 22  1  0
  9 23  1  0
 12 24  1  0
 13 25  1  0
 14 26  1  0
 14 27  1  0
 14 28  1  0
 15 29  1  0
 15 30  1  0
M  END
>  <Energy>  (1015) 
109.71215047903705

>  <compound_id>  (1015) 
2312

>  <target_id>  (1015) 
1

>  <reference_id>  (1015) 
45

>  <inspiration_ids>  (1015) 
[45, 75]

>  <energy_score>  (1015) 
6.919131669092337

>  <distance_score>  (1015) 
1.5108988951751694

>  <path>  (1015) 
/opt/xchem-fragalysis-2/maxwin/BulkDock/SCRATCH/505732/C2312-P45/C2312-P45.minimised.mol

>  <scratch_subdir>  (1015) 
/opt/xchem-fragalysis-2/maxwin/BulkDock/SCRATCH/505732/C2312-P45

>  <fragmenstein_runtime>  (1015) 
2.854210138320923

>  <fragmenstein_outcome>  (1015) 
too moved

>  <fragmenstein_mode>  (1015) 
expansion

>  <fragmenstein_error>  (1015) 


$$$$
C2312-P75
     RDKit          3D

 30 31  0  0  0  0  0  0  0  0999 V2000
   -9.7527  -25.6496   31.3678 C   0  0  0  0  0  0  0  0  0  0  0  0
  -10.6678  -24.9297   30.4352 C   0  0  0  0  0  0  0  0  0  0  0  0
  -11.1992  -23.6727   30.7318 C   0  0  0  0  0  0  0  0  0  0  0  0
  -11.9771  -23.0218   29.7741 C   0  0  0  0  0  0  0  0  0  0  0  0
  -12.2026  -23.6780   28.5845 C   0  0  0  0  0  0  0  0  0  0  0  0
  -12.9778  -23.2225   27.6132 F   0  0  0  0  0  0  0  0  0  0  0  0
  -11.6094  -24.8887   28.3421 C   0  0  0  0  0  0  0  0  0  0  0  0
  -11.4560  -25.1894   26.9743 N   0  0  0  0  0  0  0  0  0  0  0  0
  -10.0642  -24.8834   26.7385 C   0  0  0  0  0  0  0  0  0  0  0  0
   -9.1826  -25.8537   27.5049 C   0  0  0  0  0  0  0  0  0  0  0  0
   -8.2937  -25.4439   28.2375 O   0  0  0  0  0  0  0  0  0  0  0  0
   -9.4550  -27.1823   27.3013 N   0  0  0  0  0  0  0  0  0  0  0  0
  -10.8020  -27.6214   26.9065 C   0  0  0  0  0  0  0  0  0  0  0  0
  -10.8104  -28.5579   25.6784 C   0  0  0  0  0  0  0  0  0  0  0  0
  -11.8414  -26.5270   26.6247 C   0  0  0  0  0  0  0  0  0  0  0  0
  -10.9033  -25.5499   29.2656 N   0  0  0  0  0  0  0  0  0  0  0  0
   -8.7864  -25.1440   31.4194 H   0  0  0  0  0  0  0  0  0  0  0  0
   -9.5829  -26.6796   31.0377 H   0  0  0  0  0  0  0  0  0  0  0  0
  -10.1819  -25.6820   32.3739 H   0  0  0  0  0  0  0  0  0  0  0  0
  -11.0014  -23.2037   31.6895 H   0  0  0  0  0  0  0  0  0  0  0  0
  -12.3907  -22.0434   29.9673 H   0  0  0  0  0  0  0  0  0  0  0  0
   -9.8946  -24.9163   25.6633 H   0  0  0  0  0  0  0  0  0  0  0  0
   -9.8206  -23.8799   27.0883 H   0  0  0  0  0  0  0  0  0  0  0  0
   -8.9381  -27.7558   27.9552 H   0  0  0  0  0  0  0  0  0  0  0  0
  -11.1667  -28.1826   27.7753 H   0  0  0  0  0  0  0  0  0  0  0  0
   -9.8376  -28.9513   25.3776 H   0  0  0  0  0  0  0  0  0  0  0  0
  -11.4936  -29.3959   25.8645 H   0  0  0  0  0  0  0  0  0  0  0  0
  -11.2092  -28.0855   24.7809 H   0  0  0  0  0  0  0  0  0  0  0  0
  -12.0744  -26.4745   25.5543 H   0  0  0  0  0  0  0  0  0  0  0  0
  -12.8050  -26.8012   27.0664 H   0  0  0  0  0  0  0  0  0  0  0  0
  1  2  1  0
  2  3  2  0
  3  4  1  0
  4  5  2  0
  5  6  1  0
  5  7  1  0
  7  8  1  0
  8  9  1  0
  9 10  1  0
 10 11  2  0
 10 12  1  0
 12 13  1  0
 13 14  1  0
 13 15  1  0
  7 16  2  0
 16  2  1  0
 15  8  1  0
  1 17  1  0
  1 18  1  0
  1 19  1  0
  3 20  1  0
  4 21  1  0
  9 22  1  0
  9 23  1  0
 12 24  1  0
 13 25  1  0
 14 26  1  0
 14 27  1  0
 14 28  1  0
 15 29  1  0
 15 30  1  0
M  END
>  <Energy>  (1016) 
120.33226027290081

>  <compound_id>  (1016) 
2312

>  <target_id>  (1016) 
1

>  <reference_id>  (1016) 
75

>  <inspiration_ids>  (1016) 
[45, 75]

>  <energy_score>  (1016) 
17.53924146295583

>  <distance_score>  (1016) 
3.075077616392586

>  <path>  (1016) 
/opt/xchem-fragalysis-2/maxwin/BulkDock/SCRATCH/505732/C2312-P75/C2312-P75.minimised.mol

>  <scratch_subdir>  (1016) 
/opt/xchem-fragalysis-2/maxwin/BulkDock/SCRATCH/505732/C2312-P75

>  <fragmenstein_runtime>  (1016) 
4.152568101882935

>  <fragmenstein_outcome>  (1016) 
too moved

>  <fragmenstein_mode>  (1016) 
expansion

>  <fragmenstein_error>  (1016) 


$$$$
C2309-P45
     RDKit          3D

 29 30  0  0  0  0  0  0  0  0999 V2000
  -12.4207  -26.0733   27.7909 C   0  0  0  0  0  0  0  0  0  0  0  0
  -11.7434  -24.6979   27.7579 C   0  0  0  0  0  0  0  0  0  0  0  0
  -11.6966  -24.1443   29.0955 N   0  0  0  0  0  0  0  0  0  0  0  0
  -10.6794  -24.4366   29.9581 C   0  0  0  0  0  0  0  0  0  0  0  0
  -10.7854  -24.0591   31.1287 O   0  0  0  0  0  0  0  0  0  0  0  0
   -9.4748  -25.2593   29.4242 C   0  0  0  0  0  0  0  0  0  0  0  0
   -9.6155  -25.7351   28.0341 N   0  0  0  0  0  0  0  0  0  0  0  0
   -8.4663  -26.3271   27.4895 C   0  0  0  0  0  0  0  0  0  0  0  0
   -7.2960  -25.6500   27.4175 N   0  0  0  0  0  0  0  0  0  0  0  0
   -6.2129  -26.3278   26.9447 C   0  0  0  0  0  0  0  0  0  0  0  0
   -6.2256  -27.6633   26.5725 C   0  0  0  0  0  0  0  0  0  0  0  0
   -7.4328  -28.3426   26.6209 C   0  0  0  0  0  0  0  0  0  0  0  0
   -8.5563  -27.6675   27.0766 C   0  0  0  0  0  0  0  0  0  0  0  0
   -9.7260  -28.3252   27.1508 F   0  0  0  0  0  0  0  0  0  0  0  0
  -10.3125  -24.8124   27.1487 C   0  0  0  0  0  0  0  0  0  0  0  0
  -10.4321  -25.1090   25.7320 N   0  0  0  0  0  0  0  0  0  0  0  0
  -11.7939  -26.8473   28.2467 H   0  0  0  0  0  0  0  0  0  0  0  0
  -13.3238  -26.0568   28.4093 H   0  0  0  0  0  0  0  0  0  0  0  0
  -12.6858  -26.4172   26.7865 H   0  0  0  0  0  0  0  0  0  0  0  0
  -12.3406  -23.9963   27.1665 H   0  0  0  0  0  0  0  0  0  0  0  0
  -12.5406  -23.7375   29.4915 H   0  0  0  0  0  0  0  0  0  0  0  0
   -9.4209  -26.1345   30.0797 H   0  0  0  0  0  0  0  0  0  0  0  0
   -8.5596  -24.6798   29.5242 H   0  0  0  0  0  0  0  0  0  0  0  0
   -5.2939  -25.7484   26.8860 H   0  0  0  0  0  0  0  0  0  0  0  0
   -5.3215  -28.1358   26.2066 H   0  0  0  0  0  0  0  0  0  0  0  0
   -7.5086  -29.3791   26.3079 H   0  0  0  0  0  0  0  0  0  0  0  0
   -9.8240  -23.8423   27.2423 H   0  0  0  0  0  0  0  0  0  0  0  0
  -10.8267  -26.0365   25.6150 H   0  0  0  0  0  0  0  0  0  0  0  0
  -11.0351  -24.4345   25.2693 H   0  0  0  0  0  0  0  0  0  0  0  0
  1  2  1  0
  2  3  1  0
  3  4  1  0
  4  5  2  0
  4  6  1  0
  6  7  1  0
  7  8  1  0
  8  9  2  0
  9 10  1  0
 10 11  2  0
 11 12  1  0
 12 13  2  0
 13 14  1  0
  7 15  1  0
 15 16  1  0
 15  2  1  0
 13  8  1  0
  1 17  1  0
  1 18  1  0
  1 19  1  0
  2 20  1  0
  3 21  1  0
  6 22  1  0
  6 23  1  0
 10 24  1  0
 11 25  1  0
 12 26  1  0
 15 27  1  0
 16 28  1  0
 16 29  1  0
M  END
>  <Energy>  (1017) 
59.780504474705936

>  <compound_id>  (1017) 
2309

>  <target_id>  (1017) 
1

>  <reference_id>  (1017) 
45

>  <inspiration_ids>  (1017) 
[45, 88]

>  <energy_score>  (1017) 
-20.060086334729448

>  <distance_score>  (1017) 
1.9312305147033946

>  <path>  (1017) 
/opt/xchem-fragalysis-2/maxwin/BulkDock/SCRATCH/505732/C2309-P45/C2309-P45.minimised.mol

>  <scratch_subdir>  (1017) 
/opt/xchem-fragalysis-2/maxwin/BulkDock/SCRATCH/505732/C2309-P45

>  <fragmenstein_runtime>  (1017) 
4.666074991226196

>  <fragmenstein_outcome>  (1017) 
too moved

>  <fragmenstein_mode>  (1017) 
expansion

>  <fragmenstein_error>  (1017) 


$$$$
C2309-P88
     RDKit          3D

 29 30  0  0  0  0  0  0  0  0999 V2000
  -13.7599  -24.6443   27.8261 C   0  0  0  0  0  0  0  0  0  0  0  0
  -12.4356  -24.0297   28.2491 C   0  0  0  0  0  0  0  0  0  0  0  0
  -12.1694  -24.2698   29.6695 N   0  0  0  0  0  0  0  0  0  0  0  0
  -10.8978  -24.1178   30.1638 C   0  0  0  0  0  0  0  0  0  0  0  0
  -10.7152  -23.7488   31.3224 O   0  0  0  0  0  0  0  0  0  0  0  0
   -9.7822  -24.3681   29.1631 C   0  0  0  0  0  0  0  0  0  0  0  0
  -10.2052  -25.0366   27.9109 N   0  0  0  0  0  0  0  0  0  0  0  0
  -10.0701  -26.4131   27.8058 C   0  0  0  0  0  0  0  0  0  0  0  0
   -8.9111  -26.8785   27.2113 N   0  0  0  0  0  0  0  0  0  0  0  0
   -8.5219  -28.2050   27.2801 C   0  0  0  0  0  0  0  0  0  0  0  0
   -9.3015  -29.1692   27.9135 C   0  0  0  0  0  0  0  0  0  0  0  0
  -10.5215  -28.7334   28.4971 C   0  0  0  0  0  0  0  0  0  0  0  0
  -10.9100  -27.3601   28.4387 C   0  0  0  0  0  0  0  0  0  0  0  0
  -12.0451  -27.0003   29.0514 F   0  0  0  0  0  0  0  0  0  0  0  0
  -11.3439  -24.4783   27.2236 C   0  0  0  0  0  0  0  0  0  0  0  0
  -11.0582  -23.3982   26.2869 N   0  0  0  0  0  0  0  0  0  0  0  0
  -13.7230  -25.7383   27.8391 H   0  0  0  0  0  0  0  0  0  0  0  0
  -14.5641  -24.3507   28.5073 H   0  0  0  0  0  0  0  0  0  0  0  0
  -14.0419  -24.3251   26.8170 H   0  0  0  0  0  0  0  0  0  0  0  0
  -12.5007  -22.9406   28.1939 H   0  0  0  0  0  0  0  0  0  0  0  0
  -12.8336  -23.9279   30.3562 H   0  0  0  0  0  0  0  0  0  0  0  0
   -9.4135  -23.3687   28.9090 H   0  0  0  0  0  0  0  0  0  0  0  0
   -8.9695  -24.9021   29.6586 H   0  0  0  0  0  0  0  0  0  0  0  0
   -7.6292  -28.4314   26.7186 H   0  0  0  0  0  0  0  0  0  0  0  0
   -9.0336  -30.2122   27.8672 H   0  0  0  0  0  0  0  0  0  0  0  0
  -11.1978  -29.4410   28.9655 H   0  0  0  0  0  0  0  0  0  0  0  0
  -11.7788  -25.2530   26.5769 H   0  0  0  0  0  0  0  0  0  0  0  0
  -11.9086  -22.9065   26.0143 H   0  0  0  0  0  0  0  0  0  0  0  0
  -10.4852  -22.7103   26.7673 H   0  0  0  0  0  0  0  0  0  0  0  0
  1  2  1  0
  2  3  1  0
  3  4  1  0
  4  5  2  0
  4  6  1  0
  6  7  1  0
  7  8  1  0
  8  9  2  0
  9 10  1  0
 10 11  2  0
 11 12  1  0
 12 13  2  0
 13 14  1  0
  7 15  1  0
 15 16  1  0
 15  2  1  0
 13  8  1  0
  1 17  1  0
  1 18  1  0
  1 19  1  0
  2 20  1  0
  3 21  1  0
  6 22  1  0
  6 23  1  0
 10 24  1  0
 11 25  1  0
 12 26  1  0
 15 27  1  0
 16 28  1  0
 16 29  1  0
M  END
>  <Energy>  (1018) 
73.403753694549422

>  <compound_id>  (1018) 
2309

>  <target_id>  (1018) 
1

>  <reference_id>  (1018) 
88

>  <inspiration_ids>  (1018) 
[45, 88]

>  <energy_score>  (1018) 
-6.436837114887254

>  <distance_score>  (1018) 
2.7325040180377886

>  <path>  (1018) 
/opt/xchem-fragalysis-2/maxwin/BulkDock/SCRATCH/505732/C2309-P88/C2309-P88.minimised.mol

>  <scratch_subdir>  (1018) 
/opt/xchem-fragalysis-2/maxwin/BulkDock/SCRATCH/505732/C2309-P88

>  <fragmenstein_runtime>  (1018) 
4.9225921630859375

>  <fragmenstein_outcome>  (1018) 
too moved

>  <fragmenstein_mode>  (1018) 
expansion

>  <fragmenstein_error>  (1018) 


$$$$
C2315-P45
     RDKit          3D

 40 42  0  0  0  0  0  0  0  0999 V2000
   -7.7328  -26.7501   26.5963 C   0  0  0  0  0  0  0  0  0  0  0  0
   -8.6097  -26.7478   27.8122 C   0  0  0  0  0  0  0  0  0  0  0  0
   -8.6164  -25.3046   28.3472 C   0  0  0  0  0  0  0  0  0  0  0  0
   -7.3301  -24.8806   28.4947 F   0  0  0  0  0  0  0  0  0  0  0  0
   -9.3467  -25.2178   29.6355 N   0  0  0  0  0  0  0  0  0  0  0  0
  -10.4473  -24.3221   29.5991 C   0  0  0  0  0  0  0  0  0  0  0  0
  -10.8025  -23.8668   28.3973 N   0  0  0  0  0  0  0  0  0  0  0  0
  -11.5500  -22.7646   28.2992 C   0  0  0  0  0  0  0  0  0  0  0  0
  -11.9974  -22.0666   29.3921 C   0  0  0  0  0  0  0  0  0  0  0  0
  -11.7587  -22.5719   30.6482 C   0  0  0  0  0  0  0  0  0  0  0  0
  -10.9930  -23.7188   30.7537 C   0  0  0  0  0  0  0  0  0  0  0  0
  -10.6743  -24.1299   31.9900 F   0  0  0  0  0  0  0  0  0  0  0  0
   -9.7827  -26.4669   30.2219 C   0  0  0  0  0  0  0  0  0  0  0  0
  -10.5315  -27.2971   29.2266 C   0  0  0  0  0  0  0  0  0  0  0  0
  -11.4370  -28.0108   29.6709 O   0  0  0  0  0  0  0  0  0  0  0  0
  -10.0569  -27.2754   27.7324 C   0  0  0  0  0  0  0  0  0  0  0  0
  -10.9702  -26.3934   26.8435 C   0  0  0  0  0  0  0  0  0  0  0  0
  -11.8986  -27.3373   26.0837 C   0  0  0  0  0  0  0  0  0  0  0  0
  -11.8966  -28.5465   27.0012 C   0  0  0  0  0  0  0  0  0  0  0  0
  -12.6500  -29.7478   26.6893 N   0  0  0  0  0  0  0  0  0  0  0  0
  -10.3692  -28.6879   27.1988 C   0  0  0  0  0  0  0  0  0  0  0  0
   -6.6784  -26.6334   26.8741 H   0  0  0  0  0  0  0  0  0  0  0  0
   -7.9836  -25.9055   25.9568 H   0  0  0  0  0  0  0  0  0  0  0  0
   -7.8153  -27.6980   26.0606 H   0  0  0  0  0  0  0  0  0  0  0  0
   -8.1078  -27.4348   28.4807 H   0  0  0  0  0  0  0  0  0  0  0  0
   -8.9961  -24.6448   27.5645 H   0  0  0  0  0  0  0  0  0  0  0  0
  -11.7378  -22.4184   27.2879 H   0  0  0  0  0  0  0  0  0  0  0  0
  -12.5026  -21.1263   29.2617 H   0  0  0  0  0  0  0  0  0  0  0  0
  -12.0896  -22.0535   31.5417 H   0  0  0  0  0  0  0  0  0  0  0  0
   -9.0560  -27.1347   30.6572 H   0  0  0  0  0  0  0  0  0  0  0  0
  -10.3712  -26.2948   31.1124 H   0  0  0  0  0  0  0  0  0  0  0  0
  -11.6250  -25.7710   27.4534 H   0  0  0  0  0  0  0  0  0  0  0  0
  -10.4324  -25.7561   26.1366 H   0  0  0  0  0  0  0  0  0  0  0  0
  -11.4913  -27.5539   25.0920 H   0  0  0  0  0  0  0  0  0  0  0  0
  -12.8974  -26.9098   25.9499 H   0  0  0  0  0  0  0  0  0  0  0  0
  -12.4319  -28.2082   27.8864 H   0  0  0  0  0  0  0  0  0  0  0  0
  -12.5268  -30.4097   27.4622 H   0  0  0  0  0  0  0  0  0  0  0  0
  -13.6477  -29.5248   26.7003 H   0  0  0  0  0  0  0  0  0  0  0  0
   -9.8487  -28.8880   26.2555 H   0  0  0  0  0  0  0  0  0  0  0  0
  -10.1523  -29.5094   27.8702 H   0  0  0  0  0  0  0  0  0  0  0  0
  1  2  1  0
  2  3  1  0
  3  4  1  0
  3  5  1  0
  5  6  1  0
  6  7  2  0
  7  8  1  0
  8  9  2  0
  9 10  1  0
 10 11  2  0
 11 12  1  0
  5 13  1  0
 13 14  1  0
 14 15  2  0
 14 16  1  0
 16 17  1  0
 17 18  1  0
 18 19  1  0
 19 20  1  0
 19 21  1  0
 16  2  1  0
 11  6  1  0
 21 16  1  0
  1 22  1  0
  1 23  1  0
  1 24  1  0
  2 25  1  0
  3 26  1  0
  8 27  1  0
  9 28  1  0
 10 29  1  0
 13 30  1  0
 13 31  1  0
 17 32  1  0
 17 33  1  0
 18 34  1  0
 18 35  1  0
 19 36  1  0
 20 37  1  0
 20 38  1  0
 21 39  1  0
 21 40  1  0
M  END
>  <Energy>  (1019) 
80.029282875739952

>  <compound_id>  (1019) 
2315

>  <target_id>  (1019) 
1

>  <reference_id>  (1019) 
45

>  <inspiration_ids>  (1019) 
[45, 94]

>  <energy_score>  (1019) 
1.1479967653432936

>  <distance_score>  (1019) 
3.290040819338451

>  <path>  (1019) 
/opt/xchem-fragalysis-2/maxwin/BulkDock/SCRATCH/505732/C2315-P45/C2315-P45.minimised.mol

>  <scratch_subdir>  (1019) 
/opt/xchem-fragalysis-2/maxwin/BulkDock/SCRATCH/505732/C2315-P45

>  <fragmenstein_runtime>  (1019) 
21.338406085968018

>  <fragmenstein_outcome>  (1019) 
too moved

>  <fragmenstein_mode>  (1019) 
expansion

>  <fragmenstein_error>  (1019) 


$$$$
C2315-P94
     RDKit          3D

 40 42  0  0  0  0  0  0  0  0999 V2000
  -13.0537  -25.8248   27.0344 C   0  0  0  0  0  0  0  0  0  0  0  0
  -12.2545  -25.2700   28.2281 C   0  0  0  0  0  0  0  0  0  0  0  0
  -11.6579  -23.9334   27.7231 C   0  0  0  0  0  0  0  0  0  0  0  0
  -12.5039  -22.9343   27.5423 F   0  0  0  0  0  0  0  0  0  0  0  0
  -10.6882  -23.5924   28.7133 N   0  0  0  0  0  0  0  0  0  0  0  0
  -11.2293  -23.3247   30.0071 C   0  0  0  0  0  0  0  0  0  0  0  0
  -10.6996  -23.8902   31.1176 N   0  0  0  0  0  0  0  0  0  0  0  0
  -11.1770  -23.6306   32.3625 C   0  0  0  0  0  0  0  0  0  0  0  0
  -12.2359  -22.8185   32.6141 C   0  0  0  0  0  0  0  0  0  0  0  0
  -12.7557  -22.1786   31.5195 C   0  0  0  0  0  0  0  0  0  0  0  0
  -12.1930  -22.3592   30.2487 C   0  0  0  0  0  0  0  0  0  0  0  0
  -12.5294  -21.4932   29.2968 F   0  0  0  0  0  0  0  0  0  0  0  0
   -9.6009  -24.5482   28.3776 C   0  0  0  0  0  0  0  0  0  0  0  0
  -10.1625  -25.9595   27.9842 C   0  0  0  0  0  0  0  0  0  0  0  0
   -9.9473  -26.5709   26.9532 O   0  0  0  0  0  0  0  0  0  0  0  0
  -11.2652  -26.3478   28.8717 C   0  0  0  0  0  0  0  0  0  0  0  0
  -11.9938  -27.6903   29.0640 C   0  0  0  0  0  0  0  0  0  0  0  0
  -11.8929  -28.0207   30.6335 C   0  0  0  0  0  0  0  0  0  0  0  0
  -11.4078  -26.7303   31.2361 C   0  0  0  0  0  0  0  0  0  0  0  0
  -10.8119  -26.8513   32.5256 N   0  0  0  0  0  0  0  0  0  0  0  0
  -10.4320  -26.3788   30.1790 C   0  0  0  0  0  0  0  0  0  0  0  0
  -13.5338  -25.0307   26.4520 H   0  0  0  0  0  0  0  0  0  0  0  0
  -12.4015  -26.3500   26.3332 H   0  0  0  0  0  0  0  0  0  0  0  0
  -13.8538  -26.5012   27.3437 H   0  0  0  0  0  0  0  0  0  0  0  0
  -12.8504  -24.9289   29.0445 H   0  0  0  0  0  0  0  0  0  0  0  0
  -11.2077  -24.0677   26.7290 H   0  0  0  0  0  0  0  0  0  0  0  0
  -10.6862  -24.1465   33.1767 H   0  0  0  0  0  0  0  0  0  0  0  0
  -12.6466  -22.7034   33.6084 H   0  0  0  0  0  0  0  0  0  0  0  0
  -13.6378  -21.5721   31.6595 H   0  0  0  0  0  0  0  0  0  0  0  0
   -9.2112  -24.1018   27.4706 H   0  0  0  0  0  0  0  0  0  0  0  0
   -8.8241  -24.6717   29.1152 H   0  0  0  0  0  0  0  0  0  0  0  0
  -13.0566  -27.6430   28.8306 H   0  0  0  0  0  0  0  0  0  0  0  0
  -11.6858  -28.4529   28.3533 H   0  0  0  0  0  0  0  0  0  0  0  0
  -12.7654  -28.5507   31.0075 H   0  0  0  0  0  0  0  0  0  0  0  0
  -11.1653  -28.7291   31.0234 H   0  0  0  0  0  0  0  0  0  0  0  0
  -12.1171  -25.9305   31.3240 H   0  0  0  0  0  0  0  0  0  0  0  0
  -10.2137  -26.0427   32.6874 H   0  0  0  0  0  0  0  0  0  0  0  0
  -10.0978  -27.5899   32.5172 H   0  0  0  0  0  0  0  0  0  0  0  0
   -9.6751  -27.1682   30.1072 H   0  0  0  0  0  0  0  0  0  0  0  0
   -9.7753  -25.5756   30.4677 H   0  0  0  0  0  0  0  0  0  0  0  0
  1  2  1  0
  2  3  1  0
  3  4  1  0
  3  5  1  0
  5  6  1  0
  6  7  2  0
  7  8  1  0
  8  9  2  0
  9 10  1  0
 10 11  2  0
 11 12  1  0
  5 13  1  0
 13 14  1  0
 14 15  2  0
 14 16  1  0
 16 17  1  0
 17 18  1  0
 18 19  1  0
 19 20  1  0
 19 21  1  0
 16  2  1  0
 11  6  1  0
 21 16  1  0
  1 22  1  0
  1 23  1  0
  1 24  1  0
  2 25  1  0
  3 26  1  0
  8 27  1  0
  9 28  1  0
 10 29  1  0
 13 30  1  0
 13 31  1  0
 17 32  1  0
 17 33  1  0
 18 34  1  0
 18 35  1  0
 19 36  1  0
 20 37  1  0
 20 38  1  0
 21 39  1  0
 21 40  1  0
M  END
>  <Energy>  (1020) 
151.84839157744847

>  <compound_id>  (1020) 
2315

>  <target_id>  (1020) 
1

>  <reference_id>  (1020) 
94

>  <inspiration_ids>  (1020) 
[45, 94]

>  <energy_score>  (1020) 
64.19663866263892

>  <distance_score>  (1020) 
4.740978643425967

>  <path>  (1020) 
/opt/xchem-fragalysis-2/maxwin/BulkDock/SCRATCH/505732/C2315-P94/C2315-P94.minimised.mol

>  <scratch_subdir>  (1020) 
/opt/xchem-fragalysis-2/maxwin/BulkDock/SCRATCH/505732/C2315-P94

>  <fragmenstein_runtime>  (1020) 
22.837574243545532

>  <fragmenstein_outcome>  (1020) 
too moved

>  <fragmenstein_mode>  (1020) 
expansion

>  <fragmenstein_error>  (1020) 


$$$$
C2318-P45
     RDKit          3D

 30 31  0  0  0  0  0  0  0  0999 V2000
   -7.6844  -24.5510   28.0929 C   0  0  0  0  0  0  0  0  0  0  0  0
   -7.9495  -25.8285   27.3244 C   0  0  0  0  0  0  0  0  0  0  0  0
   -9.0068  -26.7418   28.0056 C   0  0  0  0  0  0  0  0  0  0  0  0
   -9.5980  -27.6596   26.9238 C   0  0  0  0  0  0  0  0  0  0  0  0
  -10.3427  -28.8529   27.4809 C   0  0  0  0  0  0  0  0  0  0  0  0
  -11.1688  -28.7783   28.3841 O   0  0  0  0  0  0  0  0  0  0  0  0
  -10.6556  -26.7364   26.2477 C   0  0  0  0  0  0  0  0  0  0  0  0
  -10.4358  -25.3916   26.3309 N   0  0  0  0  0  0  0  0  0  0  0  0
  -11.3808  -24.5072   25.9596 C   0  0  0  0  0  0  0  0  0  0  0  0
  -12.5545  -24.8780   25.3679 C   0  0  0  0  0  0  0  0  0  0  0  0
  -12.8234  -26.2318   25.2892 C   0  0  0  0  0  0  0  0  0  0  0  0
  -11.8987  -27.1477   25.7865 C   0  0  0  0  0  0  0  0  0  0  0  0
  -12.3237  -28.4006   25.9266 F   0  0  0  0  0  0  0  0  0  0  0  0
   -8.3629  -28.3757   26.2490 C   0  0  0  0  0  0  0  0  0  0  0  0
   -6.9434  -27.8453   26.4799 C   0  0  0  0  0  0  0  0  0  0  0  0
   -5.9493  -28.5042   26.1958 O   0  0  0  0  0  0  0  0  0  0  0  0
   -6.7959  -26.6376   27.0885 N   0  0  0  0  0  0  0  0  0  0  0  0
   -7.6728  -24.7352   29.1630 H   0  0  0  0  0  0  0  0  0  0  0  0
   -8.4904  -23.8316   27.9187 H   0  0  0  0  0  0  0  0  0  0  0  0
   -6.7400  -24.0818   27.7995 H   0  0  0  0  0  0  0  0  0  0  0  0
   -8.2271  -25.5065   26.3185 H   0  0  0  0  0  0  0  0  0  0  0  0
   -8.5691  -27.3824   28.7664 H   0  0  0  0  0  0  0  0  0  0  0  0
   -9.7708  -26.1570   28.5363 H   0  0  0  0  0  0  0  0  0  0  0  0
  -10.2126  -29.8215   26.9667 H   0  0  0  0  0  0  0  0  0  0  0  0
  -11.1782  -23.4668   26.1732 H   0  0  0  0  0  0  0  0  0  0  0  0
  -13.2645  -24.1213   25.0489 H   0  0  0  0  0  0  0  0  0  0  0  0
  -13.7803  -26.5845   24.9185 H   0  0  0  0  0  0  0  0  0  0  0  0
   -8.5462  -28.5876   25.2002 H   0  0  0  0  0  0  0  0  0  0  0  0
   -8.2530  -29.3817   26.6862 H   0  0  0  0  0  0  0  0  0  0  0  0
   -5.8625  -26.2445   26.9962 H   0  0  0  0  0  0  0  0  0  0  0  0
  1  2  1  0
  2  3  1  0
  3  4  1  0
  4  5  1  0
  5  6  2  0
  4  7  1  0
  7  8  2  0
  8  9  1  0
  9 10  2  0
 10 11  1  0
 11 12  2  0
 12 13  1  0
  4 14  1  0
 14 15  1  0
 15 16  2  0
 15 17  1  0
 17  2  1  0
 12  7  1  0
  1 18  1  0
  1 19  1  0
  1 20  1  0
  2 21  1  0
  3 22  1  0
  3 23  1  0
  5 24  1  0
  9 25  1  0
 10 26  1  0
 11 27  1  0
 14 28  1  0
 14 29  1  0
 17 30  1  0
M  END
>  <Energy>  (1021) 
27.830800870876821

>  <compound_id>  (1021) 
2318

>  <target_id>  (1021) 
1

>  <reference_id>  (1021) 
45

>  <inspiration_ids>  (1021) 
[45, 104]

>  <energy_score>  (1021) 
-0.16807418691621479

>  <distance_score>  (1021) 
1.68262778911298

>  <path>  (1021) 
/opt/xchem-fragalysis-2/maxwin/BulkDock/SCRATCH/505732/C2318-P45/C2318-P45.minimised.mol

>  <scratch_subdir>  (1021) 
/opt/xchem-fragalysis-2/maxwin/BulkDock/SCRATCH/505732/C2318-P45

>  <fragmenstein_runtime>  (1021) 
2.102689504623413

>  <fragmenstein_outcome>  (1021) 
too moved

>  <fragmenstein_mode>  (1021) 
expansion

>  <fragmenstein_error>  (1021) 


$$$$
C2318-P104
     RDKit          3D

 30 31  0  0  0  0  0  0  0  0999 V2000
   -9.7879  -23.7797   27.8375 C   0  0  0  0  0  0  0  0  0  0  0  0
   -9.4752  -25.0527   28.5819 C   0  0  0  0  0  0  0  0  0  0  0  0
  -10.5670  -26.0939   28.7524 C   0  0  0  0  0  0  0  0  0  0  0  0
  -11.1460  -26.7759   27.5054 C   0  0  0  0  0  0  0  0  0  0  0  0
  -11.6583  -28.2330   27.4486 C   0  0  0  0  0  0  0  0  0  0  0  0
  -12.2093  -28.8750   28.3321 O   0  0  0  0  0  0  0  0  0  0  0  0
  -12.1487  -25.8918   26.7509 C   0  0  0  0  0  0  0  0  0  0  0  0
  -12.3448  -24.6417   27.2339 N   0  0  0  0  0  0  0  0  0  0  0  0
  -13.0652  -23.7621   26.5193 C   0  0  0  0  0  0  0  0  0  0  0  0
  -13.7817  -24.1222   25.4063 C   0  0  0  0  0  0  0  0  0  0  0  0
  -13.6780  -25.4334   24.9677 C   0  0  0  0  0  0  0  0  0  0  0  0
  -12.7958  -26.2971   25.5934 C   0  0  0  0  0  0  0  0  0  0  0  0
  -12.5509  -27.4834   25.0309 F   0  0  0  0  0  0  0  0  0  0  0  0
   -9.9468  -26.9039   26.6825 C   0  0  0  0  0  0  0  0  0  0  0  0
   -8.6063  -26.8079   27.2952 C   0  0  0  0  0  0  0  0  0  0  0  0
   -7.6798  -27.5532   27.0847 O   0  0  0  0  0  0  0  0  0  0  0  0
   -8.4126  -25.6373   27.9126 N   0  0  0  0  0  0  0  0  0  0  0  0
  -10.5878  -23.2090   28.3188 H   0  0  0  0  0  0  0  0  0  0  0  0
  -10.0612  -23.9667   26.7978 H   0  0  0  0  0  0  0  0  0  0  0  0
   -8.9087  -23.1347   27.7828 H   0  0  0  0  0  0  0  0  0  0  0  0
   -9.1285  -24.8335   29.5926 H   0  0  0  0  0  0  0  0  0  0  0  0
  -10.2424  -26.8487   29.4782 H   0  0  0  0  0  0  0  0  0  0  0  0
  -11.2674  -25.4275   29.1816 H   0  0  0  0  0  0  0  0  0  0  0  0
  -11.6456  -28.7266   26.4606 H   0  0  0  0  0  0  0  0  0  0  0  0
  -13.0663  -22.7419   26.8906 H   0  0  0  0  0  0  0  0  0  0  0  0
  -14.4007  -23.3990   24.8869 H   0  0  0  0  0  0  0  0  0  0  0  0
  -14.2452  -25.7637   24.1059 H   0  0  0  0  0  0  0  0  0  0  0  0
   -9.9751  -27.8244   26.0999 H   0  0  0  0  0  0  0  0  0  0  0  0
  -10.0013  -25.9891   26.0690 H   0  0  0  0  0  0  0  0  0  0  0  0
   -7.4734  -25.3198   28.0308 H   0  0  0  0  0  0  0  0  0  0  0  0
  1  2  1  0
  2  3  1  0
  3  4  1  0
  4  5  1  0
  5  6  2  0
  4  7  1  0
  7  8  2  0
  8  9  1  0
  9 10  2  0
 10 11  1  0
 11 12  2  0
 12 13  1  0
  4 14  1  0
 14 15  1  0
 15 16  2  0
 15 17  1  0
 17  2  1  0
 12  7  1  0
  1 18  1  0
  1 19  1  0
  1 20  1  0
  2 21  1  0
  3 22  1  0
  3 23  1  0
  5 24  1  0
  9 25  1  0
 10 26  1  0
 11 27  1  0
 14 28  1  0
 14 29  1  0
 17 30  1  0
M  END
>  <Energy>  (1022) 
43.137695975281439

>  <compound_id>  (1022) 
2318

>  <target_id>  (1022) 
1

>  <reference_id>  (1022) 
104

>  <inspiration_ids>  (1022) 
[45, 104]

>  <energy_score>  (1022) 
15.13882091748772

>  <distance_score>  (1022) 
2.863880496577453

>  <path>  (1022) 
/opt/xchem-fragalysis-2/maxwin/BulkDock/SCRATCH/505732/C2318-P104/C2318-P104.minimised.mol

>  <scratch_subdir>  (1022) 
/opt/xchem-fragalysis-2/maxwin/BulkDock/SCRATCH/505732/C2318-P104

>  <fragmenstein_runtime>  (1022) 
3.0526673793792725

>  <fragmenstein_outcome>  (1022) 
too moved

>  <fragmenstein_mode>  (1022) 
expansion

>  <fragmenstein_error>  (1022) 


$$$$
C2331-P46
     RDKit          3D

 48 51  0  0  0  0  0  0  0  0999 V2000
  -13.8634  -26.4677   25.9884 C   0  0  0  0  0  0  0  0  0  0  0  0
  -12.5311  -26.0999   26.6154 C   0  0  0  0  0  0  0  0  0  0  0  0
  -11.8204  -26.9065   27.1456 O   0  0  0  0  0  0  0  0  0  0  0  0
  -12.3863  -24.7029   26.4695 N   0  0  0  0  0  0  0  0  0  0  0  0
  -13.0324  -24.0032   27.6138 C   0  0  0  0  0  0  0  0  0  0  0  0
  -12.6861  -22.7361   28.4269 C   0  0  0  0  0  0  0  0  0  0  0  0
  -11.4818  -22.9514   29.1574 N   0  0  0  0  0  0  0  0  0  0  0  0
  -11.6885  -23.4275   30.4275 C   0  0  0  0  0  0  0  0  0  0  0  0
  -11.7943  -24.7337   30.6106 C   0  0  0  0  0  0  0  0  0  0  0  0
  -11.7118  -25.6497   31.7910 C   0  0  0  0  0  0  0  0  0  0  0  0
  -11.6022  -25.0152   33.1723 C   0  0  0  0  0  0  0  0  0  0  0  0
  -10.2362  -25.5832   33.4897 C   0  0  0  0  0  0  0  0  0  0  0  0
   -9.4378  -24.8340   34.2344 C   0  0  0  0  0  0  0  0  0  0  0  0
   -9.1042  -23.7113   33.5247 C   0  0  0  0  0  0  0  0  0  0  0  0
   -9.3306  -23.7471   32.2291 C   0  0  0  0  0  0  0  0  0  0  0  0
   -9.0423  -24.8932   31.5871 C   0  0  0  0  0  0  0  0  0  0  0  0
   -9.6647  -25.9020   32.2335 C   0  0  0  0  0  0  0  0  0  0  0  0
  -10.6054  -26.6734   31.4438 C   0  0  0  0  0  0  0  0  0  0  0  0
  -11.0153  -27.9819   31.7931 N   0  0  0  0  0  0  0  0  0  0  0  0
  -11.8814  -28.4066   30.8113 C   0  0  0  0  0  0  0  0  0  0  0  0
  -12.7604  -29.2403   30.9255 O   0  0  0  0  0  0  0  0  0  0  0  0
  -11.5845  -27.7186   29.6769 N   0  0  0  0  0  0  0  0  0  0  0  0
  -10.4742  -26.9842   29.9661 C   0  0  0  0  0  0  0  0  0  0  0  0
   -9.6366  -26.6227   29.1592 O   0  0  0  0  0  0  0  0  0  0  0  0
  -10.5992  -23.6626   28.2131 C   0  0  0  0  0  0  0  0  0  0  0  0
  -11.2683  -23.8057   26.8218 C   0  0  0  0  0  0  0  0  0  0  0  0
  -14.2834  -27.3361   26.5012 H   0  0  0  0  0  0  0  0  0  0  0  0
  -14.6012  -25.6664   26.0702 H   0  0  0  0  0  0  0  0  0  0  0  0
  -13.7099  -26.6626   24.9258 H   0  0  0  0  0  0  0  0  0  0  0  0
  -13.2788  -24.7778   28.3454 H   0  0  0  0  0  0  0  0  0  0  0  0
  -13.9957  -23.8625   27.1832 H   0  0  0  0  0  0  0  0  0  0  0  0
  -13.4678  -22.5841   29.1536 H   0  0  0  0  0  0  0  0  0  0  0  0
  -12.4963  -21.8433   27.8584 H   0  0  0  0  0  0  0  0  0  0  0  0
  -11.7299  -22.6740   31.2062 H   0  0  0  0  0  0  0  0  0  0  0  0
  -11.8734  -25.2787   29.6850 H   0  0  0  0  0  0  0  0  0  0  0  0
  -12.4772  -26.3415   32.0052 H   0  0  0  0  0  0  0  0  0  0  0  0
  -12.3314  -25.2418   33.9416 H   0  0  0  0  0  0  0  0  0  0  0  0
  -11.6581  -23.9218   33.1236 H   0  0  0  0  0  0  0  0  0  0  0  0
   -9.2726  -24.9631   35.2887 H   0  0  0  0  0  0  0  0  0  0  0  0
   -8.6099  -22.8175   33.8732 H   0  0  0  0  0  0  0  0  0  0  0  0
   -9.8605  -22.8852   31.8663 H   0  0  0  0  0  0  0  0  0  0  0  0
   -8.9700  -24.9135   30.5077 H   0  0  0  0  0  0  0  0  0  0  0  0
  -10.9216  -28.2966   32.7393 H   0  0  0  0  0  0  0  0  0  0  0  0
  -11.7783  -28.0187   28.7306 H   0  0  0  0  0  0  0  0  0  0  0  0
  -10.3110  -24.6413   28.5593 H   0  0  0  0  0  0  0  0  0  0  0  0
   -9.6856  -23.0793   28.1401 H   0  0  0  0  0  0  0  0  0  0  0  0
  -11.5136  -22.8360   26.3757 H   0  0  0  0  0  0  0  0  0  0  0  0
  -10.4830  -24.1784   26.1721 H   0  0  0  0  0  0  0  0  0  0  0  0
  1  2  1  0
  2  3  2  0
  2  4  1  0
  4  5  1  0
  5  6  1  0
  6  7  1  0
  7  8  1  0
  8  9  2  3
  9 10  1  0
 10 11  1  0
 11 12  1  0
 12 13  2  0
 13 14  1  0
 14 15  2  0
 15 16  1  0
 16 17  2  0
 17 18  1  0
 18 19  1  0
 19 20  1  0
 20 21  2  0
 20 22  1  0
 22 23  1  0
 23 24  2  0
  7 25  1  0
 25 26  1  0
 26  4  1  0
 18 10  1  0
 17 12  1  0
 23 18  1  0
  1 27  1  0
  1 28  1  0
  1 29  1  0
  5 30  1  0
  5 31  1  0
  6 32  1  0
  6 33  1  0
  8 34  1  0
  9 35  1  0
 10 36  1  0
 11 37  1  0
 11 38  1  0
 13 39  1  0
 14 40  1  0
 15 41  1  0
 16 42  1  0
 19 43  1  0
 22 44  1  0
 25 45  1  0
 25 46  1  0
 26 47  1  0
 26 48  1  0
M  END
>  <Energy>  (1023) 
343.4383776396059

>  <compound_id>  (1023) 
2331

>  <target_id>  (1023) 
1

>  <reference_id>  (1023) 
46

>  <inspiration_ids>  (1023) 
[46, 54]

>  <energy_score>  (1023) 
249.33450329267978

>  <distance_score>  (1023) 
3.9317480378251526

>  <path>  (1023) 
/opt/xchem-fragalysis-2/maxwin/BulkDock/SCRATCH/505732/C2331-P46/C2331-P46.minimised.mol

>  <scratch_subdir>  (1023) 
/opt/xchem-fragalysis-2/maxwin/BulkDock/SCRATCH/505732/C2331-P46

>  <fragmenstein_runtime>  (1023) 
32.468597173690796

>  <fragmenstein_outcome>  (1023) 
too moved

>  <fragmenstein_mode>  (1023) 
expansion

>  <fragmenstein_error>  (1023) 


$$$$
C2331-P54
     RDKit          3D

 48 51  0  0  0  0  0  0  0  0999 V2000
  -16.0632  -27.0922   24.7500 C   0  0  0  0  0  0  0  0  0  0  0  0
  -14.8551  -27.9450   25.0767 C   0  0  0  0  0  0  0  0  0  0  0  0
  -14.6609  -28.9706   24.4788 O   0  0  0  0  0  0  0  0  0  0  0  0
  -14.0987  -27.3163   26.1061 N   0  0  0  0  0  0  0  0  0  0  0  0
  -14.5869  -27.7898   27.4855 C   0  0  0  0  0  0  0  0  0  0  0  0
  -14.3263  -26.8496   28.6885 C   0  0  0  0  0  0  0  0  0  0  0  0
  -12.8861  -26.7348   28.9345 N   0  0  0  0  0  0  0  0  0  0  0  0
  -12.3968  -26.4433   30.1794 C   0  0  0  0  0  0  0  0  0  0  0  0
  -11.4190  -25.6349   30.5964 C   0  0  0  0  0  0  0  0  0  0  0  0
  -10.5210  -24.6858   29.8279 C   0  0  0  0  0  0  0  0  0  0  0  0
   -9.3657  -24.2238   30.7659 C   0  0  0  0  0  0  0  0  0  0  0  0
   -9.9410  -22.9917   31.3857 C   0  0  0  0  0  0  0  0  0  0  0  0
   -9.6182  -22.4298   32.6081 C   0  0  0  0  0  0  0  0  0  0  0  0
  -10.3297  -21.3021   33.0060 C   0  0  0  0  0  0  0  0  0  0  0  0
  -11.2940  -20.7289   32.1642 C   0  0  0  0  0  0  0  0  0  0  0  0
  -11.5877  -21.2935   30.9206 C   0  0  0  0  0  0  0  0  0  0  0  0
  -10.9260  -22.4480   30.5497 C   0  0  0  0  0  0  0  0  0  0  0  0
  -11.1016  -23.3199   29.3452 C   0  0  0  0  0  0  0  0  0  0  0  0
  -10.3245  -22.8681   28.2000 N   0  0  0  0  0  0  0  0  0  0  0  0
  -11.0125  -23.1221   27.0427 C   0  0  0  0  0  0  0  0  0  0  0  0
  -10.5122  -23.3241   25.9541 O   0  0  0  0  0  0  0  0  0  0  0  0
  -12.3158  -23.2418   27.3385 N   0  0  0  0  0  0  0  0  0  0  0  0
  -12.4742  -23.3956   28.6825 C   0  0  0  0  0  0  0  0  0  0  0  0
  -13.5638  -23.6017   29.1934 O   0  0  0  0  0  0  0  0  0  0  0  0
  -12.1225  -26.7055   27.7055 C   0  0  0  0  0  0  0  0  0  0  0  0
  -12.7609  -27.6708   26.6979 C   0  0  0  0  0  0  0  0  0  0  0  0
  -16.9642  -27.5937   25.1134 H   0  0  0  0  0  0  0  0  0  0  0  0
  -16.1256  -26.9661   23.6655 H   0  0  0  0  0  0  0  0  0  0  0  0
  -15.9978  -26.1006   25.2073 H   0  0  0  0  0  0  0  0  0  0  0  0
  -14.3926  -28.8561   27.6965 H   0  0  0  0  0  0  0  0  0  0  0  0
  -15.6845  -27.7893   27.3882 H   0  0  0  0  0  0  0  0  0  0  0  0
  -14.8424  -27.2502   29.5691 H   0  0  0  0  0  0  0  0  0  0  0  0
  -14.7431  -25.8586   28.4761 H   0  0  0  0  0  0  0  0  0  0  0  0
  -12.9637  -26.9713   30.9491 H   0  0  0  0  0  0  0  0  0  0  0  0
  -11.2515  -25.6440   31.6683 H   0  0  0  0  0  0  0  0  0  0  0  0
  -10.0953  -25.2372   28.9839 H   0  0  0  0  0  0  0  0  0  0  0  0
   -8.4871  -23.9551   30.1723 H   0  0  0  0  0  0  0  0  0  0  0  0
   -9.0944  -24.9442   31.5377 H   0  0  0  0  0  0  0  0  0  0  0  0
   -8.8568  -22.8604   33.2500 H   0  0  0  0  0  0  0  0  0  0  0  0
  -10.1522  -20.8558   33.9780 H   0  0  0  0  0  0  0  0  0  0  0  0
  -11.8362  -19.8477   32.4985 H   0  0  0  0  0  0  0  0  0  0  0  0
  -12.3542  -20.8536   30.2968 H   0  0  0  0  0  0  0  0  0  0  0  0
   -9.3158  -22.8628   28.1842 H   0  0  0  0  0  0  0  0  0  0  0  0
  -13.0413  -23.3780   26.6554 H   0  0  0  0  0  0  0  0  0  0  0  0
  -11.0884  -27.0225   27.8814 H   0  0  0  0  0  0  0  0  0  0  0  0
  -12.1069  -25.7084   27.2734 H   0  0  0  0  0  0  0  0  0  0  0  0
  -12.6323  -28.7372   26.9470 H   0  0  0  0  0  0  0  0  0  0  0  0
  -12.1198  -27.5741   25.8100 H   0  0  0  0  0  0  0  0  0  0  0  0
  1  2  1  0
  2  3  2  0
  2  4  1  0
  4  5  1  0
  5  6  1  0
  6  7  1  0
  7  8  1  0
  8  9  2  3
  9 10  1  0
 10 11  1  0
 11 12  1  0
 12 13  2  0
 13 14  1  0
 14 15  2  0
 15 16  1  0
 16 17  2  0
 17 18  1  0
 18 19  1  0
 19 20  1  0
 20 21  2  0
 20 22  1  0
 22 23  1  0
 23 24  2  0
  7 25  1  0
 25 26  1  0
 26  4  1  0
 18 10  1  0
 17 12  1  0
 23 18  1  0
  1 27  1  0
  1 28  1  0
  1 29  1  0
  5 30  1  0
  5 31  1  0
  6 32  1  0
  6 33  1  0
  8 34  1  0
  9 35  1  0
 10 36  1  0
 11 37  1  0
 11 38  1  0
 13 39  1  0
 14 40  1  0
 15 41  1  0
 16 42  1  0
 19 43  1  0
 22 44  1  0
 25 45  1  0
 25 46  1  0
 26 47  1  0
 26 48  1  0
M  END
>  <Energy>  (1024) 
115.10022888596211

>  <compound_id>  (1024) 
2331

>  <target_id>  (1024) 
1

>  <reference_id>  (1024) 
54

>  <inspiration_ids>  (1024) 
[46, 54]

>  <energy_score>  (1024) 
20.99635453903784

>  <distance_score>  (1024) 
3.6026002834103394

>  <path>  (1024) 
/opt/xchem-fragalysis-2/maxwin/BulkDock/SCRATCH/505732/C2331-P54/C2331-P54.minimised.mol

>  <scratch_subdir>  (1024) 
/opt/xchem-fragalysis-2/maxwin/BulkDock/SCRATCH/505732/C2331-P54

>  <fragmenstein_runtime>  (1024) 
36.843780517578125

>  <fragmenstein_outcome>  (1024) 
too moved

>  <fragmenstein_mode>  (1024) 
expansion

>  <fragmenstein_error>  (1024) 


$$$$
